version 2
run General-0-20180703-21:58:23-5213
attr configname General
attr datetime 20180703-21:58:23
attr experiment General
attr inifile omnetpp.ini
attr iterationvars ""
attr iterationvars2 $repetition=0
attr measurement ""
attr network multi
attr processid 5213
attr repetition 0
attr replication #0
attr resultdir results
attr runnumber 0
attr seedset 0
param **.cli*.numTcpApps 0
param **.cli*.sctpApp[*].typename "\"SCTPClient\""
param **.cli*.tcpApp[*].typename "\"TCPBasicClientApp\""
param **.cli1.numSctpApps 1
param **.cli1.sctpApp[0].connectAddress "\"10.1.3.1\""
param **.cli1.sctpApp[0].connectPort 6666
param **.cli1.sctpApp[0].localAddress "\"10.1.1.1 10.2.1.1\""
param **.cli1.sctpApp[0].numRequestsPerSession 100000000
param **.cli1.sctpApp[0].outboundStreams 1
param **.cli1.sctpApp[0].primaryPath "\"10.1.3.1\""
param **.cli1.sctpApp[0].queueSize 100
param **.cli1.sctpApp[0].requestLength 1400
param **.cli1.sctpApp[0].startTime 1s
param **.cli1.sctpApp[0].stopTime 120s
param **.cmtCCVariant "\"cmt\""
param **.cmtCUCVariant "\"pseudoCumAckV2\""
param **.cmtUseDAC true
param **.cmtUseFRC true
param **.cmtUseSFR true
param **.numUdpApps 0
param **.ppp[*].queue.frameCapacity 20
param **.ppp[*].queueType "\"DropTailQueue\""
param **.srv1.numSctpApps 1
param **.srv1.numTcpApps 0
param **.srv1.sctpApp[*].typename "\"SCTPServer\""
param **.srv1.sctpApp[0].bytesToPush 0
param **.srv1.sctpApp[0].localAddress "\"10.1.3.1 10.2.3.1\""
param **.srv1.sctpApp[0].localPort 6666
param **.srv1.sctpApp[0].numPacketsToReceivePerClient 0
param **.srv1.sctpApp[0].numPacketsToSendPerClient 0
param **.srv1.sctpApp[0].outboundStreams 1
param **.srv1.sctpApp[0].queueSize 0
param **.srv1.sctpApp[0].readingInterval 0
param **.srv1.tcpApp[*].typename "\"TCPSinkApp\""
param **.udpApp[*].typename "\"UDPApp\""
param multi.testTimeout 0s
param multi.testing false

vector 11  multi.cli1.ppp[0].queue  queueLength:vector  ETV
attr interpolationmode  sample-hold
attr title  "queue length, vector"
vector 12  multi.cli1.ppp[0].ppp  txState:vector  ETV
attr interpolationmode  sample-hold
attr title  "tx state, vector"
vector 22  multi.cli1.ppp[1].queue  queueLength:vector  ETV
attr interpolationmode  sample-hold
attr title  "queue length, vector"
vector 23  multi.cli1.ppp[1].ppp  txState:vector  ETV
attr interpolationmode  sample-hold
attr title  "tx state, vector"
vector 38  multi.srv1.ppp[0].queue  queueLength:vector  ETV
attr interpolationmode  sample-hold
attr title  "queue length, vector"
vector 39  multi.srv1.ppp[0].ppp  txState:vector  ETV
attr interpolationmode  sample-hold
attr title  "tx state, vector"
vector 49  multi.srv1.ppp[1].queue  queueLength:vector  ETV
attr interpolationmode  sample-hold
attr title  "queue length, vector"
vector 50  multi.srv1.ppp[1].ppp  txState:vector  ETV
attr interpolationmode  sample-hold
attr title  "tx state, vector"
vector 65  multi.router1.ppp[0].queue  queueLength:vector  ETV
attr interpolationmode  sample-hold
attr title  "queue length, vector"
vector 66  multi.router1.ppp[0].ppp  txState:vector  ETV
attr interpolationmode  sample-hold
attr title  "tx state, vector"
vector 76  multi.router1.ppp[1].queue  queueLength:vector  ETV
attr interpolationmode  sample-hold
attr title  "queue length, vector"
vector 77  multi.router1.ppp[1].ppp  txState:vector  ETV
attr interpolationmode  sample-hold
attr title  "tx state, vector"
vector 92  multi.router2.ppp[0].queue  queueLength:vector  ETV
attr interpolationmode  sample-hold
attr title  "queue length, vector"
vector 93  multi.router2.ppp[0].ppp  txState:vector  ETV
attr interpolationmode  sample-hold
attr title  "tx state, vector"
vector 103  multi.router2.ppp[1].queue  queueLength:vector  ETV
attr interpolationmode  sample-hold
attr title  "queue length, vector"
vector 104  multi.router2.ppp[1].ppp  txState:vector  ETV
attr interpolationmode  sample-hold
attr title  "tx state, vector"
vector 119  multi.router3.ppp[0].queue  queueLength:vector  ETV
attr interpolationmode  sample-hold
attr title  "queue length, vector"
vector 120  multi.router3.ppp[0].ppp  txState:vector  ETV
attr interpolationmode  sample-hold
attr title  "tx state, vector"
vector 130  multi.router3.ppp[1].queue  queueLength:vector  ETV
attr interpolationmode  sample-hold
attr title  "queue length, vector"
vector 131  multi.router3.ppp[1].ppp  txState:vector  ETV
attr interpolationmode  sample-hold
attr title  "tx state, vector"
vector 146  multi.router4.ppp[0].queue  queueLength:vector  ETV
attr interpolationmode  sample-hold
attr title  "queue length, vector"
vector 147  multi.router4.ppp[0].ppp  txState:vector  ETV
attr interpolationmode  sample-hold
attr title  "tx state, vector"
vector 157  multi.router4.ppp[1].queue  queueLength:vector  ETV
attr interpolationmode  sample-hold
attr title  "queue length, vector"
vector 158  multi.router4.ppp[1].ppp  txState:vector  ETV
attr interpolationmode  sample-hold
attr title  "tx state, vector"
vector 186  multi.srv1.sctp  "Throughput of Association 2"  ETV
vector 208  multi.cli1.sctp  "Throughput of Association 1"  ETV
vector 228  multi.cli1.sctp  "Fast Recovery State 1:10.1.3.1"  ETV
vector 8  multi.cli1.ppp[0].queue  rcvdPk:vector(packetBytes)  ETV
attr interpolationmode  none
attr title  "received packets, vector(packetBytes)"
vector 10  multi.cli1.ppp[0].queue  queueingTime:vector  ETV
attr interpolationmode  none
attr title  "queueing time, vector"
vector 17  multi.cli1.ppp[0].ppp  rcvdPkFromHL:vector(packetBytes)  ETV
attr interpolationmode  none
attr source  packetReceivedFromUpper
attr title  "packets received from higher layer, vector(packetBytes)"
vector 13  multi.cli1.ppp[0].ppp  txPk:vector(packetBytes)  ETV
attr interpolationmode  none
attr source  packetSentToLower
attr title  "packets transmitted, vector(packetBytes)"
vector 68  multi.router1.ppp[0].ppp  rxPkOk:vector(packetBytes)  ETV
attr interpolationmode  none
attr source  rxPkOk
attr title  "packets received OK, vector(packetBytes)"
vector 72  multi.router1.ppp[0].ppp  passedUpPk:vector(packetBytes)  ETV
attr interpolationmode  none
attr source  packetSentToUpper
attr title  "packets passed to higher layer, vector(packetBytes)"
vector 73  multi.router1.ppp[1].queue  rcvdPk:vector(packetBytes)  ETV
attr interpolationmode  none
attr title  "received packets, vector(packetBytes)"
vector 75  multi.router1.ppp[1].queue  queueingTime:vector  ETV
attr interpolationmode  none
attr title  "queueing time, vector"
vector 82  multi.router1.ppp[1].ppp  rcvdPkFromHL:vector(packetBytes)  ETV
attr interpolationmode  none
attr source  packetReceivedFromUpper
attr title  "packets received from higher layer, vector(packetBytes)"
vector 78  multi.router1.ppp[1].ppp  txPk:vector(packetBytes)  ETV
attr interpolationmode  none
attr source  packetSentToLower
attr title  "packets transmitted, vector(packetBytes)"
vector 95  multi.router2.ppp[0].ppp  rxPkOk:vector(packetBytes)  ETV
attr interpolationmode  none
attr source  rxPkOk
attr title  "packets received OK, vector(packetBytes)"
vector 99  multi.router2.ppp[0].ppp  passedUpPk:vector(packetBytes)  ETV
attr interpolationmode  none
attr source  packetSentToUpper
attr title  "packets passed to higher layer, vector(packetBytes)"
vector 100  multi.router2.ppp[1].queue  rcvdPk:vector(packetBytes)  ETV
attr interpolationmode  none
attr title  "received packets, vector(packetBytes)"
vector 102  multi.router2.ppp[1].queue  queueingTime:vector  ETV
attr interpolationmode  none
attr title  "queueing time, vector"
vector 109  multi.router2.ppp[1].ppp  rcvdPkFromHL:vector(packetBytes)  ETV
attr interpolationmode  none
attr source  packetReceivedFromUpper
attr title  "packets received from higher layer, vector(packetBytes)"
vector 105  multi.router2.ppp[1].ppp  txPk:vector(packetBytes)  ETV
attr interpolationmode  none
attr source  packetSentToLower
attr title  "packets transmitted, vector(packetBytes)"
vector 41  multi.srv1.ppp[0].ppp  rxPkOk:vector(packetBytes)  ETV
attr interpolationmode  none
attr source  rxPkOk
attr title  "packets received OK, vector(packetBytes)"
vector 45  multi.srv1.ppp[0].ppp  passedUpPk:vector(packetBytes)  ETV
attr interpolationmode  none
attr source  packetSentToUpper
attr title  "packets passed to higher layer, vector(packetBytes)"
vector 257  multi.srv1.sctp  "Throughput of Association 2"  ETV
vector 183  multi.srv1.sctp  "Peer Rwnd 2"  ETV
vector 277  multi.srv1.sctp  "Fast Recovery State 3:10.1.1.1"  ETV
vector 304  multi.srv1.sctp  "Fast Recovery State 3:10.2.1.1"  ETV
vector 35  multi.srv1.ppp[0].queue  rcvdPk:vector(packetBytes)  ETV
attr interpolationmode  none
attr title  "received packets, vector(packetBytes)"
vector 37  multi.srv1.ppp[0].queue  queueingTime:vector  ETV
attr interpolationmode  none
attr title  "queueing time, vector"
vector 44  multi.srv1.ppp[0].ppp  rcvdPkFromHL:vector(packetBytes)  ETV
attr interpolationmode  none
attr source  packetReceivedFromUpper
attr title  "packets received from higher layer, vector(packetBytes)"
vector 40  multi.srv1.ppp[0].ppp  txPk:vector(packetBytes)  ETV
attr interpolationmode  none
attr source  packetSentToLower
attr title  "packets transmitted, vector(packetBytes)"
vector 106  multi.router2.ppp[1].ppp  rxPkOk:vector(packetBytes)  ETV
attr interpolationmode  none
attr source  rxPkOk
attr title  "packets received OK, vector(packetBytes)"
vector 110  multi.router2.ppp[1].ppp  passedUpPk:vector(packetBytes)  ETV
attr interpolationmode  none
attr source  packetSentToUpper
attr title  "packets passed to higher layer, vector(packetBytes)"
vector 89  multi.router2.ppp[0].queue  rcvdPk:vector(packetBytes)  ETV
attr interpolationmode  none
attr title  "received packets, vector(packetBytes)"
vector 91  multi.router2.ppp[0].queue  queueingTime:vector  ETV
attr interpolationmode  none
attr title  "queueing time, vector"
vector 98  multi.router2.ppp[0].ppp  rcvdPkFromHL:vector(packetBytes)  ETV
attr interpolationmode  none
attr source  packetReceivedFromUpper
attr title  "packets received from higher layer, vector(packetBytes)"
vector 94  multi.router2.ppp[0].ppp  txPk:vector(packetBytes)  ETV
attr interpolationmode  none
attr source  packetSentToLower
attr title  "packets transmitted, vector(packetBytes)"
vector 79  multi.router1.ppp[1].ppp  rxPkOk:vector(packetBytes)  ETV
attr interpolationmode  none
attr source  rxPkOk
attr title  "packets received OK, vector(packetBytes)"
vector 83  multi.router1.ppp[1].ppp  passedUpPk:vector(packetBytes)  ETV
attr interpolationmode  none
attr source  packetSentToUpper
attr title  "packets passed to higher layer, vector(packetBytes)"
vector 62  multi.router1.ppp[0].queue  rcvdPk:vector(packetBytes)  ETV
attr interpolationmode  none
attr title  "received packets, vector(packetBytes)"
vector 64  multi.router1.ppp[0].queue  queueingTime:vector  ETV
attr interpolationmode  none
attr title  "queueing time, vector"
vector 71  multi.router1.ppp[0].ppp  rcvdPkFromHL:vector(packetBytes)  ETV
attr interpolationmode  none
attr source  packetReceivedFromUpper
attr title  "packets received from higher layer, vector(packetBytes)"
vector 67  multi.router1.ppp[0].ppp  txPk:vector(packetBytes)  ETV
attr interpolationmode  none
attr source  packetSentToLower
attr title  "packets transmitted, vector(packetBytes)"
vector 14  multi.cli1.ppp[0].ppp  rxPkOk:vector(packetBytes)  ETV
attr interpolationmode  none
attr source  rxPkOk
attr title  "packets received OK, vector(packetBytes)"
vector 18  multi.cli1.ppp[0].ppp  passedUpPk:vector(packetBytes)  ETV
attr interpolationmode  none
attr source  packetSentToUpper
attr title  "packets passed to higher layer, vector(packetBytes)"
vector 205  multi.cli1.sctp  "Peer Rwnd 1"  ETV
vector 331  multi.cli1.sctp  "Fast Recovery State 1:10.2.3.1"  ETV
vector 260  multi.srv1.sctp  "Slow Start Threshold 3:10.1.1.1"  ETV
vector 261  multi.srv1.sctp  "Congestion Window 3:10.1.1.1"  ETV
vector 262  multi.srv1.sctp  "Bandwidth 3:10.1.1.1"  ETV
vector 258  multi.srv1.sctp  "RTO 3:10.1.1.1"  ETV
vector 287  multi.srv1.sctp  "Slow Start Threshold 3:10.2.1.1"  ETV
vector 288  multi.srv1.sctp  "Congestion Window 3:10.2.1.1"  ETV
vector 289  multi.srv1.sctp  "Bandwidth 3:10.2.1.1"  ETV
vector 292  multi.srv1.sctp  "HB Sent 3:10.2.1.1"  ETV
vector 285  multi.srv1.sctp  "RTO 3:10.2.1.1"  ETV
vector 46  multi.srv1.ppp[1].queue  rcvdPk:vector(packetBytes)  ETV
attr interpolationmode  none
attr title  "received packets, vector(packetBytes)"
vector 48  multi.srv1.ppp[1].queue  queueingTime:vector  ETV
attr interpolationmode  none
attr title  "queueing time, vector"
vector 55  multi.srv1.ppp[1].ppp  rcvdPkFromHL:vector(packetBytes)  ETV
attr interpolationmode  none
attr source  packetReceivedFromUpper
attr title  "packets received from higher layer, vector(packetBytes)"
vector 51  multi.srv1.ppp[1].ppp  txPk:vector(packetBytes)  ETV
attr interpolationmode  none
attr source  packetSentToLower
attr title  "packets transmitted, vector(packetBytes)"
vector 160  multi.router4.ppp[1].ppp  rxPkOk:vector(packetBytes)  ETV
attr interpolationmode  none
attr source  rxPkOk
attr title  "packets received OK, vector(packetBytes)"
vector 164  multi.router4.ppp[1].ppp  passedUpPk:vector(packetBytes)  ETV
attr interpolationmode  none
attr source  packetSentToUpper
attr title  "packets passed to higher layer, vector(packetBytes)"
vector 143  multi.router4.ppp[0].queue  rcvdPk:vector(packetBytes)  ETV
attr interpolationmode  none
attr title  "received packets, vector(packetBytes)"
vector 145  multi.router4.ppp[0].queue  queueingTime:vector  ETV
attr interpolationmode  none
attr title  "queueing time, vector"
vector 152  multi.router4.ppp[0].ppp  rcvdPkFromHL:vector(packetBytes)  ETV
attr interpolationmode  none
attr source  packetReceivedFromUpper
attr title  "packets received from higher layer, vector(packetBytes)"
vector 148  multi.router4.ppp[0].ppp  txPk:vector(packetBytes)  ETV
attr interpolationmode  none
attr source  packetSentToLower
attr title  "packets transmitted, vector(packetBytes)"
vector 133  multi.router3.ppp[1].ppp  rxPkOk:vector(packetBytes)  ETV
attr interpolationmode  none
attr source  rxPkOk
attr title  "packets received OK, vector(packetBytes)"
vector 137  multi.router3.ppp[1].ppp  passedUpPk:vector(packetBytes)  ETV
attr interpolationmode  none
attr source  packetSentToUpper
attr title  "packets passed to higher layer, vector(packetBytes)"
vector 116  multi.router3.ppp[0].queue  rcvdPk:vector(packetBytes)  ETV
attr interpolationmode  none
attr title  "received packets, vector(packetBytes)"
vector 118  multi.router3.ppp[0].queue  queueingTime:vector  ETV
attr interpolationmode  none
attr title  "queueing time, vector"
vector 125  multi.router3.ppp[0].ppp  rcvdPkFromHL:vector(packetBytes)  ETV
attr interpolationmode  none
attr source  packetReceivedFromUpper
attr title  "packets received from higher layer, vector(packetBytes)"
vector 121  multi.router3.ppp[0].ppp  txPk:vector(packetBytes)  ETV
attr interpolationmode  none
attr source  packetSentToLower
attr title  "packets transmitted, vector(packetBytes)"
vector 25  multi.cli1.ppp[1].ppp  rxPkOk:vector(packetBytes)  ETV
attr interpolationmode  none
attr source  rxPkOk
attr title  "packets received OK, vector(packetBytes)"
vector 29  multi.cli1.ppp[1].ppp  passedUpPk:vector(packetBytes)  ETV
attr interpolationmode  none
attr source  packetSentToUpper
attr title  "packets passed to higher layer, vector(packetBytes)"
vector 320  multi.cli1.sctp  "HB ACK Sent 1:10.2.3.1"  ETV
vector 321  multi.cli1.sctp  "HB Received 1:10.2.3.1"  ETV
vector 19  multi.cli1.ppp[1].queue  rcvdPk:vector(packetBytes)  ETV
attr interpolationmode  none
attr title  "received packets, vector(packetBytes)"
vector 21  multi.cli1.ppp[1].queue  queueingTime:vector  ETV
attr interpolationmode  none
attr title  "queueing time, vector"
vector 28  multi.cli1.ppp[1].ppp  rcvdPkFromHL:vector(packetBytes)  ETV
attr interpolationmode  none
attr source  packetReceivedFromUpper
attr title  "packets received from higher layer, vector(packetBytes)"
vector 24  multi.cli1.ppp[1].ppp  txPk:vector(packetBytes)  ETV
attr interpolationmode  none
attr source  packetSentToLower
attr title  "packets transmitted, vector(packetBytes)"
vector 211  multi.cli1.sctp  "Slow Start Threshold 1:10.1.3.1"  ETV
vector 212  multi.cli1.sctp  "Congestion Window 1:10.1.3.1"  ETV
vector 213  multi.cli1.sctp  "Bandwidth 1:10.1.3.1"  ETV
vector 209  multi.cli1.sctp  "RTO 1:10.1.3.1"  ETV
vector 314  multi.cli1.sctp  "Slow Start Threshold 1:10.2.3.1"  ETV
vector 315  multi.cli1.sctp  "Congestion Window 1:10.2.3.1"  ETV
vector 316  multi.cli1.sctp  "Bandwidth 1:10.2.3.1"  ETV
vector 319  multi.cli1.sctp  "HB Sent 1:10.2.3.1"  ETV
vector 312  multi.cli1.sctp  "RTO 1:10.2.3.1"  ETV
vector 1  multi.cli1.sctpApp[0]  sentPk:vector(packetBytes)  ETV
attr interpolationmode  none
attr source  sentPk
attr title  "packets sent, vector(packetBytes)"
vector 348  multi.cli1.sctp  "SendQueue of Association 1"  ETV
vector 214  multi.cli1.sctp  "TSN Sent 1:10.1.3.1"  ETV
vector 221  multi.cli1.sctp  "Outstanding Bytes 1:10.1.3.1"  ETV
vector 193  multi.cli1.sctp  "Outstanding Bytes 1:Total"  ETV
vector 220  multi.cli1.sctp  "Queued Sent Bytes 1:10.1.3.1"  ETV
vector 192  multi.cli1.sctp  "Queued Sent Bytes 1:Total"  ETV
vector 317  multi.cli1.sctp  "TSN Sent 1:10.2.3.1"  ETV
vector 324  multi.cli1.sctp  "Outstanding Bytes 1:10.2.3.1"  ETV
vector 323  multi.cli1.sctp  "Queued Sent Bytes 1:10.2.3.1"  ETV
vector 122  multi.router3.ppp[0].ppp  rxPkOk:vector(packetBytes)  ETV
attr interpolationmode  none
attr source  rxPkOk
attr title  "packets received OK, vector(packetBytes)"
vector 126  multi.router3.ppp[0].ppp  passedUpPk:vector(packetBytes)  ETV
attr interpolationmode  none
attr source  packetSentToUpper
attr title  "packets passed to higher layer, vector(packetBytes)"
vector 127  multi.router3.ppp[1].queue  rcvdPk:vector(packetBytes)  ETV
attr interpolationmode  none
attr title  "received packets, vector(packetBytes)"
vector 129  multi.router3.ppp[1].queue  queueingTime:vector  ETV
attr interpolationmode  none
attr title  "queueing time, vector"
vector 136  multi.router3.ppp[1].ppp  rcvdPkFromHL:vector(packetBytes)  ETV
attr interpolationmode  none
attr source  packetReceivedFromUpper
attr title  "packets received from higher layer, vector(packetBytes)"
vector 132  multi.router3.ppp[1].ppp  txPk:vector(packetBytes)  ETV
attr interpolationmode  none
attr source  packetSentToLower
attr title  "packets transmitted, vector(packetBytes)"
vector 149  multi.router4.ppp[0].ppp  rxPkOk:vector(packetBytes)  ETV
attr interpolationmode  none
attr source  rxPkOk
attr title  "packets received OK, vector(packetBytes)"
vector 153  multi.router4.ppp[0].ppp  passedUpPk:vector(packetBytes)  ETV
attr interpolationmode  none
attr source  packetSentToUpper
attr title  "packets passed to higher layer, vector(packetBytes)"
vector 154  multi.router4.ppp[1].queue  rcvdPk:vector(packetBytes)  ETV
attr interpolationmode  none
attr title  "received packets, vector(packetBytes)"
vector 156  multi.router4.ppp[1].queue  queueingTime:vector  ETV
attr interpolationmode  none
attr title  "queueing time, vector"
vector 163  multi.router4.ppp[1].ppp  rcvdPkFromHL:vector(packetBytes)  ETV
attr interpolationmode  none
attr source  packetReceivedFromUpper
attr title  "packets received from higher layer, vector(packetBytes)"
vector 159  multi.router4.ppp[1].ppp  txPk:vector(packetBytes)  ETV
attr interpolationmode  none
attr source  packetSentToLower
attr title  "packets transmitted, vector(packetBytes)"
vector 52  multi.srv1.ppp[1].ppp  rxPkOk:vector(packetBytes)  ETV
attr interpolationmode  none
attr source  rxPkOk
attr title  "packets received OK, vector(packetBytes)"
vector 56  multi.srv1.ppp[1].ppp  passedUpPk:vector(packetBytes)  ETV
attr interpolationmode  none
attr source  packetSentToUpper
attr title  "packets passed to higher layer, vector(packetBytes)"
vector 295  multi.srv1.sctp  "HB ACK Received 3:10.2.1.1"  ETV
vector 286  multi.srv1.sctp  "RTT 3:10.2.1.1"  ETV
vector 293  multi.srv1.sctp  "HB ACK Sent 3:10.2.1.1"  ETV
vector 294  multi.srv1.sctp  "HB Received 3:10.2.1.1"  ETV
vector 322  multi.cli1.sctp  "HB ACK Received 1:10.2.3.1"  ETV
vector 313  multi.cli1.sctp  "RTT 1:10.2.3.1"  ETV
vector 291  multi.srv1.sctp  "TSN Received 3:10.2.1.1"  ETV
vector 339  multi.srv1.sctp  "Stream 0 Throughput"  ETV
vector 169  multi.srv1.sctp  "Queued Received Bytes 2:Total"  ETV
vector 165  multi.srv1.sctp  "Advertised Receiver Window 2"  ETV
vector 174  multi.srv1.sctp  "Number of Total Gap Blocks Stored 2"  ETV
vector 175  multi.srv1.sctp  "Number of Revokable Gap Blocks Stored 2"  ETV
vector 176  multi.srv1.sctp  "Number of Non-Revokable Gap Blocks Stored 2"  ETV
vector 177  multi.srv1.sctp  "Number of Duplicate TSNs Stored 2"  ETV
vector 181  multi.srv1.sctp  "Length of SACK Sent 2"  ETV
vector 178  multi.srv1.sctp  "Number of Revokable Gap Blocks Sent 2"  ETV
vector 179  multi.srv1.sctp  "Number of Non-Revokable Gap Blocks Sent 2"  ETV
vector 180  multi.srv1.sctp  "Number of Duplicate TSNs Sent 2"  ETV
vector 347  multi.cli1.sctp  "Number of Gap Blocks in Last SACK of Association 1"  ETV
vector 194  multi.cli1.sctp  "Number of Revokable Gap Blocks in SACK 1"  ETV
vector 195  multi.cli1.sctp  "Number of Non-Revokable Gap Blocks in SACK 1"  ETV
vector 334  multi.cli1.sctp  "TSN Acked CumAck 1:10.2.3.1"  ETV
vector 335  multi.cli1.sctp  "TSN Acked GapAck 1:10.2.3.1"  ETV
vector 224  multi.cli1.sctp  "Number of Gap Acked Chunks in Last SACK 1:10.1.3.1"  ETV
vector 225  multi.cli1.sctp  "Number of Non-Revokable Gap Acked Chunks in Last SACK 1:10.1.3.1"  ETV
vector 226  multi.cli1.sctp  "Number of Gap Missed Chunks in Last SACK 1:10.1.3.1"  ETV
vector 327  multi.cli1.sctp  "Number of Gap Acked Chunks in Last SACK 1:10.2.3.1"  ETV
vector 328  multi.cli1.sctp  "Number of Non-Revokable Gap Acked Chunks in Last SACK 1:10.2.3.1"  ETV
vector 329  multi.cli1.sctp  "Number of Gap Missed Chunks in Last SACK 1:10.2.3.1"  ETV
vector 204  multi.cli1.sctp  "Arwnd in Last SACK 1"  ETV
vector 336  multi.cli1.sctp  "TSN PseudoCumAck 1:10.2.3.1"  ETV
vector 330  multi.cli1.sctp  "Partial Bytes Acked 1:10.2.3.1"  ETV
vector 264  multi.srv1.sctp  "TSN Received 3:10.1.1.1"  ETV
vector 185  multi.srv1.sctp  "End to End Delay of Association 2"  ETV
vector 343  multi.srv1.sctpApp[0]  "App: Received Bytes of assoc 3"  ETV
vector 231  multi.cli1.sctp  "TSN Acked CumAck 1:10.1.3.1"  ETV
vector 210  multi.cli1.sctp  "RTT 1:10.1.3.1"  ETV
vector 233  multi.cli1.sctp  "TSN PseudoCumAck 1:10.1.3.1"  ETV
vector 234  multi.cli1.sctp  "TSN RTXPseudoCumAck 1:10.1.3.1"  ETV
vector 227  multi.cli1.sctp  "Partial Bytes Acked 1:10.1.3.1"  ETV
vector 232  multi.cli1.sctp  "TSN Acked GapAck 1:10.1.3.1"  ETV
vector 96  multi.router2.ppp[0].ppp  droppedPkBitError:vector(packetBytes)  ETV
attr interpolationmode  none
attr source  dropPkBitError
attr title  "packets dropped/bit error, vector(packetBytes)"
vector 229  multi.cli1.sctp  "TSN Sent Fast RTX 1:10.1.3.1"  ETV
vector 332  multi.cli1.sctp  "TSN Sent Fast RTX 1:10.2.3.1"  ETV
vector 337  multi.cli1.sctp  "TSN RTXPseudoCumAck 1:10.2.3.1"  ETV
vector 333  multi.cli1.sctp  "TSN Sent Timer-Based RTX 1:10.2.3.1"  ETV
vector 230  multi.cli1.sctp  "TSN Sent Timer-Based RTX 1:10.1.3.1"  ETV
vector 80  multi.router1.ppp[1].ppp  droppedPkBitError:vector(packetBytes)  ETV
attr interpolationmode  none
attr source  dropPkBitError
attr title  "packets dropped/bit error, vector(packetBytes)"
vector 123  multi.router3.ppp[0].ppp  droppedPkBitError:vector(packetBytes)  ETV
attr interpolationmode  none
attr source  dropPkBitError
attr title  "packets dropped/bit error, vector(packetBytes)"
vector 265  multi.srv1.sctp  "HB Sent 3:10.1.1.1"  ETV
vector 217  multi.cli1.sctp  "HB ACK Sent 1:10.1.3.1"  ETV
vector 218  multi.cli1.sctp  "HB Received 1:10.1.3.1"  ETV
vector 268  multi.srv1.sctp  "HB ACK Received 3:10.1.1.1"  ETV
vector 259  multi.srv1.sctp  "RTT 3:10.1.1.1"  ETV
211	110	1.052736	65535
211	474	1.446016	65535
211	552	1.653696	65535
211	693	2.0728	65535
211	758	2.209984	65535
211	841	2.4768	65535
211	986	2.75872	65535
211	1069	3.025536	65535
211	1386	3.574656	65535
211	1970	5.657248	19870
211	2396	7.697216	19870
211	3520	10.915616	17880
211	3772	12.034624	17880
211	4061	14.389531981127	17880
211	4220	14.806363981127	17880
211	4290	14.944315981127	17880
211	4290	14.944315981127	17880
211	5220	19.181148193639	17880
211	5441	19.737948193639	17880
211	5497	20.010300193639	17880
211	5574	20.430428193639	17880
211	5718	21.271708193639	17880
211	6225	23.042460193639	17880
211	6593	24.140316193639	17880
211	7119	26.081308193639	17880
211	7803	28.702300193639	17880
211	8373	30.542044193639	17880
211	8610	31.356572193639	17880
211	8984	32.876924193639	17880
211	9221	33.568604193639	17880
211	9851	35.168764193639	17880
211	10286	37.232392566918	17880
211	10599	38.186812193639	17880
211	10966	39.033288566918	17880
211	11690	40.854972193639	17880
211	12060	42.134172193639	17880
211	12635	43.926524193639	17880
211	13232	46.130333634244	17880
211	13439	47.098685634244	17880
211	14063	48.958333634244	17880
211	14439	49.790397634244	17880
211	15144	53.282685634244	17880
211	15348	55.21813055545	17880
211	15784	56.120957634244	17880
211	15868	56.597341634244	17880
211	15916	56.877757634244	17880
211	15964	57.152125634244	17880
211	16940	61.122973634244	17880
211	17717	64.024285634244	17880
211	18392	65.957949634244	17880
211	18928	67.926077634244	17880
211	19904	70.728225826038	17880
211	20246	72.64803308517	17880
211	21132	74.93648108517	17880
211	21611	77.66984373945	17880
211	21613	78.285175642099	17880
211	21745	78.702391642099	17880
211	21832	78.841463642099	17880
211	21904	79.113943642099	17880
211	22108	79.808567642099	17880
211	22681	81.127639642099	17880
211	23514	85.068366653053	17880
211	23529	85.480302653053	17880
211	24131	87.266820205504	17880
211	24378	87.952740205504	17880
211	24889	89.744708205504	17880
211	25328	91.129636205504	17880
211	26010	93.880132205504	17880
211	26401	95.532772205504	17880
211	27032	97.178212205504	17880
211	27984	100.472516205504	17880
211	28308	101.583076205504	17880
211	28851	103.237348205504	17880
211	29238	104.605028205504	17880
211	29582	106.459396205504	17880
211	30351	110.314836237402	17880
211	30547	111.015732237402	17880
211	30603	111.346004237402	17880
211	30656	111.570900237402	17880
211	30736	111.991028237402	17880
211	31488	114.322772237402	17880
211	31802	115.565460237402	17880
211	32325	117.072980237402	17880
211	33097	118.993556237402	17880
212	110	1.052736	8940
212	474	1.446016	10340
212	552	1.653696	14540
212	693	2.0728	18740
212	758	2.209984	22940
212	841	2.4768	27140
212	986	2.75872	31340
212	1069	3.025536	35540
212	1386	3.574656	39740
212	1970	5.657248	19870
212	2396	7.697216	24070
212	3520	10.915616	17880
212	3772	12.034624	22080
212	4061	14.389531981127	4470
212	4220	14.806363981127	8670
212	4290	14.944315981127	13140
212	4290	14.944315981127	17880
212	5220	19.181148193639	4470
212	5441	19.737948193639	8670
212	5497	20.010300193639	12870
212	5574	20.430428193639	17070
212	5718	21.271708193639	17880
212	6225	23.042460193639	22080
212	6593	24.140316193639	17880
212	7119	26.081308193639	22080
212	7803	28.702300193639	17880
212	8373	30.542044193639	19280
212	8610	31.356572193639	17880
212	8984	32.876924193639	20680
212	9221	33.568604193639	17880
212	9851	35.168764193639	22080
212	10286	37.232392566918	4470
212	10599	38.186812193639	8940
212	10966	39.033288566918	17880
212	11690	40.854972193639	17880
212	12060	42.134172193639	22080
212	12635	43.926524193639	17880
212	13232	46.130333634244	19280
212	13439	47.098685634244	17880
212	14063	48.958333634244	22080
212	14439	49.790397634244	17880
212	15144	53.282685634244	22080
212	15348	55.21813055545	4470
212	15784	56.120957634244	8670
212	15868	56.597341634244	12870
212	15916	56.877757634244	17070
212	15964	57.152125634244	21270
212	16940	61.122973634244	17880
212	17717	64.024285634244	17880
212	18392	65.957949634244	22080
212	18928	67.926077634244	26550
212	19904	70.728225826038	17880
212	20246	72.64803308517	22080
212	21132	74.93648108517	26550
212	21611	77.66984373945	8940
212	21613	78.285175642099	4470
212	21745	78.702391642099	8670
212	21832	78.841463642099	13140
212	21904	79.113943642099	17340
212	22108	79.808567642099	18740
212	22681	81.127639642099	23210
212	23514	85.068366653053	8940
212	23529	85.480302653053	4470
212	24131	87.266820205504	17880
212	24378	87.952740205504	22080
212	24889	89.744708205504	17880
212	25328	91.129636205504	22080
212	26010	93.880132205504	17880
212	26401	95.532772205504	22350
212	27032	97.178212205504	26820
212	27984	100.472516205504	17880
212	28308	101.583076205504	22080
212	28851	103.237348205504	26550
212	29238	104.605028205504	17880
212	29582	106.459396205504	22080
212	30351	110.314836237402	4470
212	30547	111.015732237402	8670
212	30603	111.346004237402	12870
212	30656	111.570900237402	17070
212	30736	111.991028237402	21270
212	31488	114.322772237402	17880
212	31802	115.565460237402	22080
212	32325	117.072980237402	26550
212	33097	118.993556237402	31020
213	110	1.052736	0.3725
213	474	1.446016	3.2867132867133
213	552	1.653696	4.6217418944692
213	693	2.0728	4.966869864829
213	758	2.209984	6.080042406573
213	841	2.4768	7.193214948317
213	986	2.75872	7.1130276895143
213	1069	3.025536	8.0662732637313
213	1386	3.574656	9.0195188379483
213	1970	5.657248	2.9467596025508
213	2396	7.697216	3.0799744081894
213	3520	10.915616	2.3287314404793
213	3772	12.034624	2.8757488929409
213	4061	14.389531981127	0.59205298013245
213	4220	14.806363981127	1.1483443708609
213	4290	14.944315981127	1.7403973509934
213	4290	14.944315981127	2.3682119205298
213	5220	19.181148193639	0.60601952277657
213	5441	19.737948193639	1.2366281557552
213	5497	20.010300193639	1.8356867779204
213	5574	20.430428193639	2.4347454000856
213	5718	21.271708193639	2.5630733944954
213	6225	23.042460193639	3.1651376146789
213	6593	24.140316193639	2.5782263878875
213	7119	26.081308193639	2.9943043124491
213	7803	28.702300193639	2.4526748971193
213	8373	30.542044193639	2.6447187928669
213	8610	31.356572193639	2.3890967397114
213	8984	32.876924193639	2.7632282202031
213	9221	33.568604193639	2.3929336188437
213	9851	35.168764193639	2.7910504361016
213	10286	37.232392566918	0.5125558995528
213	10599	38.186812193639	1.0251117991056
213	10966	39.033288566918	2.1129756558733
213	11690	40.854972193639	2.0606200299643
213	12060	42.134172193639	2.5446582920364
213	12635	43.926524193639	1.9051678209909
213	13232	46.130333634244	2.0543420351625
213	13439	47.098685634244	1.9190726628743
213	14063	48.958333634244	2.4577025823687
213	14439	49.790397634244	1.9624629568653
213	15144	53.282685634244	2.4673147837747
213	15348	55.21813055545	0.49949715051961
213	15784	56.120957634244	0.96882333221589
213	15868	56.597341634244	1.3975458790314
213	15916	56.877757634244	1.8536214572701
213	15964	57.152125634244	2.3096970355087
213	16940	61.122973634244	1.9964269763287
213	17717	64.024285634244	2.0369104579631
213	18392	65.957949634244	2.513375071144
213	18928	67.926077634244	3.0478705085524
213	19904	70.728225826038	1.972639011474
213	20246	72.64803308517	2.275350370981
213	21132	74.93648108517	2.7100132693682
213	21611	77.66984373945	0.86268455080575
213	21613	78.285175642099	0.43134227540288
213	21745	78.702391642099	0.83663031940558
213	21832	78.841463642099	1.3653366583541
213	21904	79.113943642099	1.8017456359102
213	22108	79.808567642099	1.9472152950956
213	22681	81.127639642099	2.3357150045285
213	23514	85.068366653053	0.88035450516987
213	23529	85.480302653053	0.44017725258493
213	24131	87.266820205504	1.8029646062317
213	24378	87.952740205504	2.2264797821922
213	24889	89.744708205504	1.7322224375121
213	25328	91.129636205504	2.1391203255183
213	26010	93.880132205504	1.7156016119747
213	26401	95.532772205504	2.1445020149683
213	27032	97.178212205504	2.6567607726597
213	27984	100.472516205504	1.7012369172217
213	28308	101.583076205504	2.1008563273073
213	28851	103.237348205504	2.612160566706
213	29238	104.605028205504	1.6927009372337
213	29582	106.459396205504	2.2084416883377
213	30351	110.314836237402	0.44384867441168
213	30547	111.015732237402	0.9113844213182
213	30603	111.346004237402	1.352885525071
213	30656	111.570900237402	1.7943866288237
213	30736	111.991028237402	2.2358877325765
213	31488	114.322772237402	1.9935332813023
213	31802	115.565460237402	2.4618129111384
213	32325	117.072980237402	2.9654864291299
213	33097	118.993556237402	3.2045454545455
209	110	1.052736	3
209	474	1.446016	1.17984
209	693	2.0728	1.688332
209	986	2.75872	2.0967265
209	1496	3.856704	2.9431526875
209	1908	5.23712	3.775842351563
209	2105	6.320352	4.248565870119
209	2533	7.98064	3.558227782841
209	3352	10.22832	2.917627981127
209	3855	12.311136	2.540234198851
209	4061	14.389531981127	5.080468397702
209	4412	15.420699981127	2.239456212512
209	5051	17.635675981127	2.14637052559
209	5220	19.181148193639	4.29274105118
209	5441	19.737948193639	2.159931964625
209	5644	20.851580193639	1.869813785098
209	6426	23.318844193639	1.656130048998
209	6907	25.445852193639	1.952263150658
209	7298	26.776700193639	2.056046275165
209	7724	28.429948193639	2.136984680182
209	8558	31.090268193639	2.049103333519
209	9221	33.568604193639	1.781219073838
209	9529	34.567932193639	2.063628373279
209	10180	36.419420193639	2.705576089371
209	10286	37.232392566918	5.411152178742
209	10966	39.033288566918	2.52832340644
209	11515	40.306236193639	2.402757223348
209	12635	43.926524193639	2.869377785738
209	13381	46.679069634244	2.50401273755
209	13812	48.131197634244	2.461075526627
209	14384	49.653725634244	2.269587857473
209	15035	52.880733634244	2.12888102904
209	15348	55.21813055545	4.25776205808
209	15868	56.597341634244	2.169446226247
209	16097	57.975229634244	1.961928612966
209	16751	60.566173634244	1.931926910097
209	17123	61.967549634244	2.045842098292
209	17482	63.279261634244	2.225873543533
209	18165	65.129309634244	1.95243523375
209	18514	66.434333634244	1.803745589702
209	19265	68.532257826038	1.851092961119
209	19735	69.923393826038	2.339528822603
209	20008	71.276449826038	2.758652580991
209	20695	73.95408108517	2.47681865428
209	21267	75.33222508517	2.799958556929
209	21613	78.285175642099	5.599917113858
209	21832	78.841463642099	3.070559280702
209	22406	80.357303642099	2.95559301904
209	23033	82.012087642099	2.646743010954
209	23512	84.001911642099	2.690960201452
209	23529	85.480302653053	5.381920402904
209	23988	86.511470653053	2.544087339948
209	24578	88.502500205504	2.221475295213
209	24889	89.744708205504	2.436658919711
209	25435	91.406020205504	2.551885685445
209	25891	93.470596205504	2.851319607314
209	26511	95.952900205504	2.750839694354
209	27170	97.469092205504	2.508398011026
209	27870	99.825316205504	2.826183400318
209	28449	102.003204205504	2.750814046688
209	29190	104.349444205504	2.828852530488
209	29582	106.459396205504	2.945312652962
209	30085	107.78158758444	2.602816381308
209	30351	110.314836237402	5.205632762616
209	30547	111.015732237402	2.755099034578
209	30808	112.321780237402	2.550320680955
209	31488	114.322772237402	2.492814365109
209	32055	116.251892237402	2.163541396424
209	32769	118.098100237402	2.720354595831
210	474	1.446016	0.39328
210	693	2.0728	1.020064
210	986	2.75872	1.105024
210	1496	3.856704	1.64672
210	1908	5.23712	1.929152
210	2105	6.320352	1.914912
210	2533	7.98064	0.831168
210	3352	10.22832	0.966976
210	3855	12.311136	0.83168
210	4412	15.420699981127	1.031168
210	5051	17.635675981127	0.693984
210	5441	19.737948193639	0.5568
210	5644	20.851580193639	0.84128
210	6426	23.318844193639	0.831168
210	6907	25.445852193639	1.305536
210	7298	26.776700193639	1.243008
210	7724	28.429948193639	0.5568
210	8558	31.090268193639	1.105536
210	9221	33.568604193639	0.923552
210	9529	34.567932193639	1.373344
210	10180	36.419420193639	1.7984
210	10966	39.033288566918	0.831168
210	11515	40.306236193639	1.272947626721
210	12635	43.926524193639	1.792352
210	13381	46.679069634244	1.106048
210	13812	48.131197634244	0.831168
210	14384	49.653725634244	1.250176
210	15035	52.880733634244	0.976704
210	15868	56.597341634244	1.379211078794
210	16097	57.975229634244	1.097472
210	16751	60.566173634244	0.945248
210	17123	61.967549634244	1.401376
210	17482	63.279261634244	0.694496
210	18165	65.129309634244	1.105024
210	18514	66.434333634244	1.024128
210	19265	68.532257826038	0.830656
210	19735	69.923393826038	1.667392
210	20008	71.276449826038	1.773696
210	20695	73.95408108517	1.306048
210	21267	75.33222508517	1.790208
210	21832	78.841463642099	0.556288
210	22406	80.357303642099	1.51584
210	23033	82.012087642099	1.105536
210	23512	84.001911642099	1.580288
210	23988	86.511470653053	1.031168
210	24578	88.502500205504	1.23568
210	24889	89.744708205504	1.648736
210	25435	91.406020205504	0.831168
210	25891	93.470596205504	1.792224
210	26511	95.952900205504	0.975296
210	27170	97.469092205504	1.1136
210	27870	99.825316205504	1.806976
210	28449	102.003204205504	0.967872
210	29190	104.349444205504	1.668896
210	29582	106.459396205504	0.756288
210	30085	107.78158758444	1.322191378936
210	30547	111.015732237402	0.700896
210	30808	112.321780237402	0.975776
210	31488	114.322772237402	0.83168
210	32055	116.251892237402	1.105536
210	32769	118.098100237402	1.846208
214	114	1.052736	1000
214	119	1.052736	1002
214	119	1.052736	1003
214	119	1.052736	1004
214	122	1.052736	1005
214	122	1.052736	1006
214	122	1.052736	1007
214	474	1.446016	1017
214	474	1.446016	1018
214	474	1.446016	1019
214	552	1.653696	1020
214	552	1.653696	1021
214	552	1.653696	1022
214	552	1.653696	1023
214	552	1.653696	1024
214	552	1.653696	1025
214	693	2.0728	1041
214	693	2.0728	1042
214	693	2.0728	1043
214	693	2.0728	1044
214	693	2.0728	1045
214	693	2.0728	1046
214	758	2.209984	1053
214	758	2.209984	1054
214	758	2.209984	1055
214	758	2.209984	1056
214	758	2.209984	1057
214	758	2.209984	1058
214	898	2.619648	1065
214	898	2.619648	1066
214	898	2.619648	1067
214	898	2.619648	1068
214	898	2.619648	1069
214	898	2.619648	1070
214	986	2.75872	1083
214	986	2.75872	1084
214	986	2.75872	1085
214	986	2.75872	1086
214	986	2.75872	1087
214	986	2.75872	1088
214	1187	3.307968	1095
214	1187	3.307968	1096
214	1187	3.307968	1097
214	1187	3.307968	1098
214	1187	3.307968	1099
214	1187	3.307968	1100
214	1187	3.307968	1101
214	1187	3.307968	1102
214	1187	3.307968	1103
214	1674	4.40544	1116
214	1674	4.40544	1117
214	1674	4.40544	1118
214	1674	4.40544	1119
214	1674	4.40544	1120
214	1674	4.40544	1121
214	1674	4.40544	1122
214	1674	4.40544	1123
214	1674	4.40544	1124
214	1674	4.40544	1125
214	1674	4.40544	1126
214	1674	4.40544	1127
214	2265	7.142432	1146
214	2265	7.142432	1147
214	2265	7.142432	1148
214	2287	7.149472	1149
214	2287	7.149472	1150
214	2287	7.149472	1151
214	2287	7.149472	1152
214	2287	7.149472	1153
214	2287	7.149472	1154
214	2287	7.149472	1155
214	2287	7.149472	1156
214	2287	7.149472	1157
214	2287	7.149472	1158
214	2287	7.149472	1159
214	2287	7.149472	1160
214	2396	7.697216	1173
214	2396	7.697216	1174
214	2396	7.697216	1175
214	2396	7.697216	1176
214	2396	7.697216	1177
214	2396	7.697216	1178
214	3003	9.261344	1194
214	3003	9.261344	1195
214	3003	9.261344	1196
214	3003	9.261344	1197
214	3003	9.261344	1198
214	3003	9.261344	1199
214	3003	9.261344	1200
214	3003	9.261344	1201
214	3003	9.261344	1202
214	3003	9.261344	1203
214	3003	9.261344	1204
214	3003	9.261344	1205
214	3220	9.81424	1218
214	3220	9.81424	1219
214	3220	9.81424	1220
214	3641	11.479456	1233
214	3641	11.479456	1234
214	3641	11.479456	1235
214	3641	11.479456	1236
214	3641	11.479456	1237
214	3641	11.479456	1238
214	3641	11.479456	1239
214	3641	11.479456	1240
214	3641	11.479456	1241
214	3641	11.479456	1242
214	3641	11.479456	1243
214	3641	11.479456	1244
214	4061	14.389531981127	1260
214	4061	14.389531981127	1261
214	4061	14.389531981127	1262
214	4061	14.389531981127	1263
214	4061	14.389531981127	1264
214	4061	14.389531981127	1265
214	4764	16.941691981127	1290
214	4764	16.941691981127	1291
214	4764	16.941691981127	1292
214	4764	16.941691981127	1293
214	4764	16.941691981127	1294
214	4764	16.941691981127	1295
214	4764	16.941691981127	1296
214	4764	16.941691981127	1297
214	4764	16.941691981127	1298
214	5220	19.181148193639	1317
214	5220	19.181148193639	1318
214	5220	19.181148193639	1319
214	5220	19.181148193639	1320
214	5220	19.181148193639	1321
214	5220	19.181148193639	1322
214	5441	19.737948193639	1323
214	5441	19.737948193639	1324
214	5441	19.737948193639	1325
214	5441	19.737948193639	1326
214	5441	19.737948193639	1327
214	5441	19.737948193639	1328
214	5497	20.010300193639	1329
214	5497	20.010300193639	1330
214	5497	20.010300193639	1331
214	5497	20.010300193639	1332
214	5497	20.010300193639	1333
214	5497	20.010300193639	1334
214	5574	20.430428193639	1338
214	5574	20.430428193639	1339
214	5574	20.430428193639	1340
214	5574	20.430428193639	1341
214	5574	20.430428193639	1342
214	5574	20.430428193639	1343
214	5644	20.851580193639	1347
214	5644	20.851580193639	1348
214	5644	20.851580193639	1349
214	5802	21.692348193639	1359
214	5802	21.692348193639	1360
214	5802	21.692348193639	1361
214	5802	21.692348193639	1362
214	5802	21.692348193639	1363
214	5802	21.692348193639	1364
214	6070	22.487676193639	1368
214	6070	22.487676193639	1369
214	6070	22.487676193639	1370
214	6070	22.487676193639	1371
214	6070	22.487676193639	1372
214	6070	22.487676193639	1373
214	6070	22.487676193639	1374
214	6070	22.487676193639	1375
214	6070	22.487676193639	1376
214	6263	23.179644193639	1389
214	6263	23.179644193639	1390
214	6263	23.179644193639	1391
214	6263	23.179644193639	1392
214	6263	23.179644193639	1393
214	6263	23.179644193639	1394
214	6593	24.140316193639	1407
214	6593	24.140316193639	1408
214	6593	24.140316193639	1409
214	6593	24.140316193639	1410
214	6593	24.140316193639	1411
214	6593	24.140316193639	1412
214	6993	25.526140193639	1425
214	6993	25.526140193639	1426
214	6993	25.526140193639	1427
214	7015	25.533692193639	1428
214	7015	25.533692193639	1429
214	7015	25.533692193639	1430
214	7015	25.533692193639	1431
214	7015	25.533692193639	1432
214	7015	25.533692193639	1433
214	7015	25.533692193639	1434
214	7015	25.533692193639	1435
214	7015	25.533692193639	1436
214	7015	25.533692193639	1437
214	7015	25.533692193639	1438
214	7015	25.533692193639	1439
214	7298	26.776700193639	1461
214	7298	26.776700193639	1462
214	7298	26.776700193639	1463
214	7570	27.873148193639	1473
214	7570	27.873148193639	1474
214	7570	27.873148193639	1475
214	7570	27.873148193639	1476
214	7570	27.873148193639	1477
214	7570	27.873148193639	1478
214	7570	27.873148193639	1479
214	7570	27.873148193639	1480
214	7570	27.873148193639	1481
214	7570	27.873148193639	1482
214	7570	27.873148193639	1483
214	7570	27.873148193639	1484
214	8203	29.984732193639	1503
214	8203	29.984732193639	1504
214	8203	29.984732193639	1505
214	8314	30.404860193639	1518
214	8314	30.404860193639	1519
214	8314	30.404860193639	1520
214	8373	30.542044193639	1527
214	8373	30.542044193639	1528
214	8373	30.542044193639	1529
214	8373	30.542044193639	1530
214	8373	30.542044193639	1531
214	8373	30.542044193639	1532
214	8689	32.090268193639	1539
214	8689	32.090268193639	1540
214	8689	32.090268193639	1541
214	8904	32.645052193639	1548
214	8904	32.645052193639	1549
214	8904	32.645052193639	1550
214	8904	32.645052193639	1551
214	8904	32.645052193639	1552
214	8904	32.645052193639	1553
214	8984	32.876924193639	1563
214	8984	32.876924193639	1564
214	8984	32.876924193639	1565
214	8984	32.876924193639	1566
214	8984	32.876924193639	1567
214	8984	32.876924193639	1568
214	9097	33.194588193639	1575
214	9097	33.194588193639	1576
214	9097	33.194588193639	1577
214	9619	34.613980193639	1587
214	9619	34.613980193639	1588
214	9619	34.613980193639	1589
214	9641	34.621020193639	1590
214	9641	34.621020193639	1591
214	9641	34.621020193639	1592
214	9641	34.621020193639	1593
214	9641	34.621020193639	1594
214	9641	34.621020193639	1595
214	9641	34.621020193639	1596
214	9641	34.621020193639	1597
214	9641	34.621020193639	1598
214	9641	34.621020193639	1599
214	9641	34.621020193639	1600
214	9641	34.621020193639	1601
214	9851	35.168764193639	1614
214	9851	35.168764193639	1615
214	9851	35.168764193639	1616
214	9851	35.168764193639	1617
214	9851	35.168764193639	1618
214	9851	35.168764193639	1619
214	10286	37.232392566918	1641
214	10286	37.232392566918	1642
214	10286	37.232392566918	1643
214	10286	37.232392566918	1644
214	10286	37.232392566918	1645
214	10286	37.232392566918	1646
214	10599	38.186812193639	1647
214	10599	38.186812193639	1648
214	10599	38.186812193639	1649
214	10685	38.202120566918	1650
214	10685	38.202120566918	1651
214	10685	38.202120566918	1652
214	10685	38.202120566918	1653
214	10685	38.202120566918	1654
214	10685	38.202120566918	1655
214	10838	38.741596193639	1668
214	10838	38.741596193639	1669
214	10838	38.741596193639	1670
214	10966	39.033288566918	1683
214	10966	39.033288566918	1684
214	10966	39.033288566918	1685
214	10966	39.033288566918	1686
214	10966	39.033288566918	1687
214	10966	39.033288566918	1688
214	11215	39.612252193639	1692
214	11215	39.612252193639	1693
214	11215	39.612252193639	1694
214	11215	39.612252193639	1695
214	11215	39.612252193639	1696
214	11215	39.612252193639	1697
214	11215	39.612252193639	1698
214	11215	39.612252193639	1699
214	11215	39.612252193639	1700
214	11515	40.306236193639	1725
214	11515	40.306236193639	1726
214	11515	40.306236193639	1727
214	11895	41.579388193639	1734
214	11895	41.579388193639	1735
214	11895	41.579388193639	1736
214	11917	41.586428193639	1737
214	11917	41.586428193639	1738
214	11917	41.586428193639	1739
214	11917	41.586428193639	1740
214	11917	41.586428193639	1741
214	11917	41.586428193639	1742
214	11917	41.586428193639	1743
214	11917	41.586428193639	1744
214	11917	41.586428193639	1745
214	11917	41.586428193639	1746
214	11917	41.586428193639	1747
214	11917	41.586428193639	1748
214	12060	42.134172193639	1770
214	12060	42.134172193639	1771
214	12060	42.134172193639	1772
214	12060	42.134172193639	1773
214	12060	42.134172193639	1774
214	12060	42.134172193639	1775
214	12427	43.506396193639	1782
214	12427	43.506396193639	1783
214	12427	43.506396193639	1784
214	12427	43.506396193639	1785
214	12427	43.506396193639	1786
214	12427	43.506396193639	1787
214	12427	43.506396193639	1788
214	12427	43.506396193639	1789
214	12427	43.506396193639	1790
214	13055	45.573021634244	1809
214	13055	45.573021634244	1810
214	13055	45.573021634244	1811
214	13055	45.573021634244	1812
214	13055	45.573021634244	1813
214	13055	45.573021634244	1814
214	13173	45.993149634244	1827
214	13173	45.993149634244	1828
214	13173	45.993149634244	1829
214	13554	47.300029634244	1842
214	13554	47.300029634244	1843
214	13554	47.300029634244	1844
214	13554	47.300029634244	1845
214	13554	47.300029634244	1846
214	13554	47.300029634244	1847
214	13554	47.300029634244	1848
214	13554	47.300029634244	1849
214	13554	47.300029634244	1850
214	13554	47.300029634244	1851
214	13554	47.300029634244	1852
214	13554	47.300029634244	1853
214	13870	48.403549634244	1872
214	13870	48.403549634244	1873
214	13870	48.403549634244	1874
214	13870	48.403549634244	1875
214	13870	48.403549634244	1876
214	13870	48.403549634244	1877
214	13870	48.403549634244	1878
214	13870	48.403549634244	1879
214	13870	48.403549634244	1880
214	14150	49.233085634244	1893
214	14150	49.233085634244	1894
214	14150	49.233085634244	1895
214	14150	49.233085634244	1896
214	14150	49.233085634244	1897
214	14150	49.233085634244	1898
214	14150	49.233085634244	1899
214	14150	49.233085634244	1900
214	14150	49.233085634244	1901
214	14834	51.904029634244	1920
214	14834	51.904029634244	1921
214	14834	51.904029634244	1922
214	14834	51.904029634244	1923
214	14834	51.904029634244	1924
214	14834	51.904029634244	1925
214	14834	51.904029634244	1926
214	14834	51.904029634244	1927
214	14834	51.904029634244	1928
214	14892	52.178397634244	1932
214	14892	52.178397634244	1933
214	14892	52.178397634244	1934
214	14947	52.459581634244	1935
214	14947	52.459581634244	1936
214	14947	52.459581634244	1937
214	15348	55.21813055545	1956
214	15348	55.21813055545	1957
214	15348	55.21813055545	1958
214	15348	55.21813055545	1959
214	15348	55.21813055545	1960
214	15348	55.21813055545	1961
214	15784	56.120957634244	1962
214	15784	56.120957634244	1963
214	15784	56.120957634244	1964
214	15784	56.120957634244	1965
214	15784	56.120957634244	1966
214	15784	56.120957634244	1967
214	15868	56.597341634244	1968
214	15868	56.597341634244	1969
214	15868	56.597341634244	1970
214	15868	56.597341634244	1971
214	15868	56.597341634244	1972
214	15868	56.597341634244	1973
214	15916	56.877757634244	1974
214	15916	56.877757634244	1975
214	15916	56.877757634244	1976
214	15916	56.877757634244	1977
214	15916	56.877757634244	1978
214	15916	56.877757634244	1979
214	15964	57.152125634244	1980
214	15964	57.152125634244	1981
214	15964	57.152125634244	1982
214	15964	57.152125634244	1983
214	15964	57.152125634244	1984
214	15964	57.152125634244	1985
214	16012	57.426493634244	1986
214	16012	57.426493634244	1987
214	16012	57.426493634244	1988
214	16397	59.620925634244	1998
214	16397	59.620925634244	1999
214	16397	59.620925634244	2000
214	16397	59.620925634244	2001
214	16397	59.620925634244	2002
214	16397	59.620925634244	2003
214	16397	59.620925634244	2004
214	16397	59.620925634244	2005
214	16397	59.620925634244	2006
214	16397	59.620925634244	2007
214	16397	59.620925634244	2008
214	16397	59.620925634244	2009
214	16751	60.566173634244	2025
214	16751	60.566173634244	2026
214	16751	60.566173634244	2027
214	16817	60.724445634244	2034
214	16817	60.724445634244	2035
214	16817	60.724445634244	2036
214	17258	62.371645634244	2049
214	17258	62.371645634244	2050
214	17258	62.371645634244	2051
214	17306	62.584765634244	2052
214	17306	62.584765634244	2053
214	17306	62.584765634244	2054
214	17306	62.584765634244	2055
214	17306	62.584765634244	2056
214	17306	62.584765634244	2057
214	17306	62.584765634244	2058
214	17306	62.584765634244	2059
214	17306	62.584765634244	2060
214	17306	62.584765634244	2061
214	17306	62.584765634244	2062
214	17306	62.584765634244	2063
214	17482	63.279261634244	2082
214	17482	63.279261634244	2083
214	17482	63.279261634244	2084
214	17717	64.024285634244	2094
214	17717	64.024285634244	2095
214	17717	64.024285634244	2096
214	17717	64.024285634244	2097
214	17717	64.024285634244	2098
214	17717	64.024285634244	2099
214	18260	65.403165634244	2112
214	18260	65.403165634244	2113
214	18260	65.403165634244	2114
214	18282	65.410205634244	2115
214	18282	65.410205634244	2116
214	18282	65.410205634244	2117
214	18282	65.410205634244	2118
214	18282	65.410205634244	2119
214	18282	65.410205634244	2120
214	18282	65.410205634244	2121
214	18282	65.410205634244	2122
214	18282	65.410205634244	2123
214	18282	65.410205634244	2124
214	18282	65.410205634244	2125
214	18282	65.410205634244	2126
214	18803	67.701601826038	2151
214	18803	67.701601826038	2152
214	18803	67.701601826038	2153
214	18803	67.701601826038	2154
214	18803	67.701601826038	2155
214	18803	67.701601826038	2156
214	18803	67.701601826038	2157
214	18803	67.701601826038	2158
214	18803	67.701601826038	2159
214	18803	67.701601826038	2160
214	18803	67.701601826038	2161
214	18803	67.701601826038	2162
214	19039	68.256001826038	2175
214	19039	68.256001826038	2176
214	19039	68.256001826038	2177
214	19039	68.256001826038	2178
214	19039	68.256001826038	2179
214	19039	68.256001826038	2180
214	19039	68.256001826038	2181
214	19039	68.256001826038	2182
214	19039	68.256001826038	2183
214	19039	68.256001826038	2184
214	19039	68.256001826038	2185
214	19039	68.256001826038	2186
214	19395	68.947969826038	2202
214	19395	68.947969826038	2203
214	19395	68.947969826038	2204
214	19395	68.947969826038	2205
214	19395	68.947969826038	2206
214	19395	68.947969826038	2207
214	19599	69.502753826038	2220
214	19599	69.502753826038	2221
214	19599	69.502753826038	2222
214	19599	69.502753826038	2223
214	19599	69.502753826038	2224
214	19599	69.502753826038	2225
214	20246	72.64803308517	2247
214	20246	72.64803308517	2248
214	20246	72.64803308517	2249
214	20246	72.64803308517	2250
214	20246	72.64803308517	2251
214	20246	72.64803308517	2252
214	20361	73.06764908517	2262
214	20361	73.06764908517	2263
214	20361	73.06764908517	2264
214	20434	73.26764908517	2271
214	20434	73.26764908517	2272
214	20434	73.26764908517	2273
214	20508	73.47152108517	2280
214	20508	73.47152108517	2281
214	20508	73.47152108517	2282
214	20566	73.54201708517	2289
214	20566	73.54201708517	2290
214	20566	73.54201708517	2291
214	20808	74.36387308517	2295
214	20808	74.36387308517	2296
214	20808	74.36387308517	2297
214	20808	74.36387308517	2298
214	20808	74.36387308517	2299
214	20808	74.36387308517	2300
214	20977	74.59027308517	2313
214	20977	74.59027308517	2314
214	20977	74.59027308517	2315
214	21060	74.78400108517	2322
214	21060	74.78400108517	2323
214	21060	74.78400108517	2324
214	21197	75.19302508517	2328
214	21197	75.19302508517	2329
214	21197	75.19302508517	2330
214	21197	75.19302508517	2331
214	21197	75.19302508517	2332
214	21197	75.19302508517	2333
214	21613	78.285175642099	2352
214	21613	78.285175642099	2353
214	21613	78.285175642099	2354
214	21613	78.285175642099	2355
214	21613	78.285175642099	2356
214	21613	78.285175642099	2357
214	21832	78.841463642099	2364
214	21832	78.841463642099	2365
214	21832	78.841463642099	2366
214	21832	78.841463642099	2367
214	21832	78.841463642099	2368
214	21832	78.841463642099	2369
214	21904	79.113943642099	2370
214	21904	79.113943642099	2371
214	21904	79.113943642099	2372
214	21904	79.113943642099	2373
214	21904	79.113943642099	2374
214	21904	79.113943642099	2375
214	22108	79.808567642099	2391
214	22108	79.808567642099	2392
214	22108	79.808567642099	2393
214	22174	80.030167642099	2397
214	22174	80.030167642099	2398
214	22174	80.030167642099	2399
214	22406	80.357303642099	2412
214	22406	80.357303642099	2413
214	22406	80.357303642099	2414
214	22602	80.906551642099	2418
214	22602	80.906551642099	2419
214	22602	80.906551642099	2420
214	22602	80.906551642099	2421
214	22602	80.906551642099	2422
214	22602	80.906551642099	2423
214	22750	81.324535642099	2436
214	22750	81.324535642099	2437
214	22750	81.324535642099	2438
214	22750	81.324535642099	2439
214	22750	81.324535642099	2440
214	22750	81.324535642099	2441
214	22831	81.463351642099	2454
214	22831	81.463351642099	2455
214	22831	81.463351642099	2456
214	22969	81.872887642099	2460
214	22969	81.872887642099	2461
214	22969	81.872887642099	2462
214	23167	82.421623642099	2472
214	23167	82.421623642099	2473
214	23167	82.421623642099	2474
214	23167	82.421623642099	2475
214	23167	82.421623642099	2476
214	23167	82.421623642099	2477
214	23529	85.480302653053	2499
214	23529	85.480302653053	2500
214	23529	85.480302653053	2501
214	23529	85.480302653053	2502
214	23529	85.480302653053	2503
214	23529	85.480302653053	2504
214	23988	86.511470653053	2511
214	23988	86.511470653053	2512
214	23988	86.511470653053	2513
214	24131	87.266820205504	2517
214	24131	87.266820205504	2518
214	24131	87.266820205504	2519
214	24131	87.266820205504	2520
214	24131	87.266820205504	2521
214	24131	87.266820205504	2522
214	24131	87.266820205504	2523
214	24131	87.266820205504	2524
214	24131	87.266820205504	2525
214	24215	87.539300205504	2532
214	24215	87.539300205504	2533
214	24215	87.539300205504	2534
214	24378	87.952740205504	2544
214	24378	87.952740205504	2545
214	24378	87.952740205504	2546
214	24378	87.952740205504	2547
214	24378	87.952740205504	2548
214	24378	87.952740205504	2549
214	24446	88.095972205504	2559
214	24446	88.095972205504	2560
214	24446	88.095972205504	2561
214	24578	88.502500205504	2565
214	24578	88.502500205504	2566
214	24578	88.502500205504	2567
214	25089	90.574852205504	2583
214	25089	90.574852205504	2584
214	25089	90.574852205504	2585
214	25089	90.574852205504	2586
214	25089	90.574852205504	2587
214	25089	90.574852205504	2588
214	25089	90.574852205504	2589
214	25089	90.574852205504	2590
214	25089	90.574852205504	2591
214	25089	90.574852205504	2592
214	25089	90.574852205504	2593
214	25089	90.574852205504	2594
214	25502	91.678372205504	2613
214	25502	91.678372205504	2614
214	25502	91.678372205504	2615
214	25777	93.050980205504	2625
214	25777	93.050980205504	2626
214	25777	93.050980205504	2627
214	25777	93.050980205504	2628
214	25777	93.050980205504	2629
214	25777	93.050980205504	2630
214	25777	93.050980205504	2631
214	25777	93.050980205504	2632
214	25777	93.050980205504	2633
214	25777	93.050980205504	2634
214	25777	93.050980205504	2635
214	25777	93.050980205504	2636
214	26299	94.977604205504	2655
214	26299	94.977604205504	2656
214	26299	94.977604205504	2657
214	26299	94.977604205504	2658
214	26299	94.977604205504	2659
214	26299	94.977604205504	2660
214	26299	94.977604205504	2661
214	26299	94.977604205504	2662
214	26299	94.977604205504	2663
214	26299	94.977604205504	2664
214	26299	94.977604205504	2665
214	26299	94.977604205504	2666
214	26401	95.532772205504	2670
214	26401	95.532772205504	2671
214	26401	95.532772205504	2672
214	26401	95.532772205504	2673
214	26401	95.532772205504	2674
214	26401	95.532772205504	2675
214	26401	95.532772205504	2676
214	26401	95.532772205504	2677
214	26401	95.532772205504	2678
214	26637	96.355492205504	2685
214	26637	96.355492205504	2686
214	26637	96.355492205504	2687
214	26637	96.355492205504	2688
214	26637	96.355492205504	2689
214	26637	96.355492205504	2690
214	26637	96.355492205504	2691
214	26637	96.355492205504	2692
214	26637	96.355492205504	2693
214	26952	96.912292205504	2703
214	26952	96.912292205504	2704
214	26952	96.912292205504	2705
214	26952	96.912292205504	2706
214	26952	96.912292205504	2707
214	26952	96.912292205504	2708
214	27032	97.178212205504	2718
214	27032	97.178212205504	2719
214	27032	97.178212205504	2720
214	27032	97.178212205504	2721
214	27032	97.178212205504	2722
214	27032	97.178212205504	2723
214	27170	97.469092205504	2730
214	27170	97.469092205504	2731
214	27170	97.469092205504	2732
214	27365	98.018340205504	2742
214	27365	98.018340205504	2743
214	27365	98.018340205504	2744
214	27365	98.018340205504	2745
214	27365	98.018340205504	2746
214	27365	98.018340205504	2747
214	27569	98.575652205504	2760
214	27569	98.575652205504	2761
214	27569	98.575652205504	2762
214	27569	98.575652205504	2763
214	27569	98.575652205504	2764
214	27569	98.575652205504	2765
214	28087	101.028292205504	2784
214	28087	101.028292205504	2785
214	28087	101.028292205504	2786
214	28109	101.035332205504	2787
214	28109	101.035332205504	2788
214	28109	101.035332205504	2789
214	28109	101.035332205504	2790
214	28109	101.035332205504	2791
214	28109	101.035332205504	2792
214	28109	101.035332205504	2793
214	28109	101.035332205504	2794
214	28109	101.035332205504	2795
214	28109	101.035332205504	2796
214	28109	101.035332205504	2797
214	28109	101.035332205504	2798
214	28308	101.583076205504	2805
214	28308	101.583076205504	2806
214	28308	101.583076205504	2807
214	28308	101.583076205504	2808
214	28308	101.583076205504	2809
214	28308	101.583076205504	2810
214	28449	102.003204205504	2817
214	28449	102.003204205504	2818
214	28449	102.003204205504	2819
214	28634	102.680548205504	2823
214	28634	102.680548205504	2824
214	28634	102.680548205504	2825
214	28634	102.680548205504	2826
214	28634	102.680548205504	2827
214	28634	102.680548205504	2828
214	28634	102.680548205504	2829
214	28634	102.680548205504	2830
214	28634	102.680548205504	2831
214	28851	103.237348205504	2841
214	28851	103.237348205504	2842
214	28851	103.237348205504	2843
214	28851	103.237348205504	2844
214	28851	103.237348205504	2845
214	28851	103.237348205504	2846
214	28851	103.237348205504	2847
214	28851	103.237348205504	2848
214	28851	103.237348205504	2849
214	29008	103.792132205504	2862
214	29008	103.792132205504	2863
214	29008	103.792132205504	2864
214	29501	105.703108205504	2880
214	29501	105.703108205504	2881
214	29501	105.703108205504	2882
214	29582	106.459396205504	2889
214	29582	106.459396205504	2890
214	29582	106.459396205504	2891
214	29582	106.459396205504	2892
214	29582	106.459396205504	2893
214	29582	106.459396205504	2894
214	29672	106.81272358444	2895
214	29672	106.81272358444	2896
214	29672	106.81272358444	2897
214	29896	107.23233958444	2910
214	29896	107.23233958444	2911
214	29896	107.23233958444	2912
214	29961	107.36952358444	2919
214	29961	107.36952358444	2920
214	29961	107.36952358444	2921
214	30351	110.314836237402	2937
214	30351	110.314836237402	2938
214	30351	110.314836237402	2939
214	30351	110.314836237402	2940
214	30351	110.314836237402	2941
214	30351	110.314836237402	2942
214	30547	111.015732237402	2943
214	30547	111.015732237402	2944
214	30547	111.015732237402	2945
214	30547	111.015732237402	2946
214	30547	111.015732237402	2947
214	30547	111.015732237402	2948
214	30603	111.346004237402	2952
214	30603	111.346004237402	2953
214	30603	111.346004237402	2954
214	30603	111.346004237402	2955
214	30603	111.346004237402	2956
214	30603	111.346004237402	2957
214	30656	111.570900237402	2958
214	30656	111.570900237402	2959
214	30656	111.570900237402	2960
214	30656	111.570900237402	2961
214	30656	111.570900237402	2962
214	30656	111.570900237402	2963
214	30736	111.991028237402	2967
214	30736	111.991028237402	2968
214	30736	111.991028237402	2969
214	30736	111.991028237402	2970
214	30736	111.991028237402	2971
214	30736	111.991028237402	2972
214	30904	112.683380237402	2979
214	30904	112.683380237402	2980
214	30904	112.683380237402	2981
214	30904	112.683380237402	2982
214	30904	112.683380237402	2983
214	30904	112.683380237402	2984
214	31160	113.491092237402	2991
214	31160	113.491092237402	2992
214	31160	113.491092237402	2993
214	31160	113.491092237402	2994
214	31160	113.491092237402	2995
214	31160	113.491092237402	2996
214	31160	113.491092237402	2997
214	31160	113.491092237402	2998
214	31160	113.491092237402	2999
214	31663	115.146356237402	3015
214	31663	115.146356237402	3016
214	31663	115.146356237402	3017
214	31663	115.146356237402	3018
214	31663	115.146356237402	3019
214	31663	115.146356237402	3020
214	31663	115.146356237402	3021
214	31663	115.146356237402	3022
214	31663	115.146356237402	3023
214	31663	115.146356237402	3024
214	31663	115.146356237402	3025
214	31663	115.146356237402	3026
214	31802	115.565460237402	3039
214	31802	115.565460237402	3040
214	31802	115.565460237402	3041
214	31802	115.565460237402	3042
214	31802	115.565460237402	3043
214	31802	115.565460237402	3044
214	31939	115.975508237402	3045
214	31939	115.975508237402	3046
214	31939	115.975508237402	3047
214	31939	115.975508237402	3048
214	31939	115.975508237402	3049
214	31939	115.975508237402	3050
214	32055	116.251892237402	3054
214	32055	116.251892237402	3055
214	32055	116.251892237402	3056
214	32215	116.671508237402	3075
214	32215	116.671508237402	3076
214	32215	116.671508237402	3077
214	32325	117.072980237402	3081
214	32325	117.072980237402	3082
214	32325	117.072980237402	3083
214	32325	117.072980237402	3084
214	32325	117.072980237402	3085
214	32325	117.072980237402	3086
214	32325	117.072980237402	3087
214	32325	117.072980237402	3088
214	32325	117.072980237402	3089
214	32573	117.767348237402	3096
214	32573	117.767348237402	3097
214	32573	117.767348237402	3098
214	32573	117.767348237402	3099
214	32573	117.767348237402	3100
214	32573	117.767348237402	3101
214	32769	118.098100237402	3114
214	32769	118.098100237402	3115
214	32769	118.098100237402	3116
214	32830	118.186964237402	3123
214	32830	118.186964237402	3124
214	32830	118.186964237402	3125
214	33015	118.736212237402	3129
214	33015	118.736212237402	3130
214	33015	118.736212237402	3131
214	33015	118.736212237402	3132
214	33015	118.736212237402	3133
214	33015	118.736212237402	3134
214	33313	119.765748237402	3147
214	33313	119.765748237402	3148
214	33313	119.765748237402	3149
214	33313	119.765748237402	3150
214	33313	119.765748237402	3151
214	33313	119.765748237402	3152
214	33313	119.765748237402	3153
214	33313	119.765748237402	3154
214	33313	119.765748237402	3155
214	33313	119.765748237402	3156
214	33313	119.765748237402	3157
214	33313	119.765748237402	3158
218	9382	34.054272	1
218	19776	70.054272	2
218	28359	101.738676580917	3
217	9382	34.054272	1
217	19776	70.054272	2
217	28359	101.738676580917	3
220	114	1.052736	1400
220	119	1.052736	2800
220	119	1.052736	4200
220	119	1.052736	5600
220	122	1.052736	7000
220	122	1.052736	8400
220	122	1.052736	9800
220	474	1.446016	8400
220	474	1.446016	9800
220	474	1.446016	11200
220	474	1.446016	12600
220	552	1.653696	11200
220	552	1.653696	9800
220	552	1.653696	8400
220	552	1.653696	9800
220	552	1.653696	11200
220	552	1.653696	12600
220	552	1.653696	14000
220	552	1.653696	15400
220	552	1.653696	16800
220	693	2.0728	15400
220	693	2.0728	14000
220	693	2.0728	12600
220	693	2.0728	14000
220	693	2.0728	15400
220	693	2.0728	16800
220	693	2.0728	18200
220	693	2.0728	19600
220	693	2.0728	21000
220	758	2.209984	19600
220	758	2.209984	18200
220	758	2.209984	16800
220	758	2.209984	18200
220	758	2.209984	19600
220	758	2.209984	21000
220	758	2.209984	22400
220	758	2.209984	23800
220	758	2.209984	25200
220	841	2.4768	23800
220	841	2.4768	22400
220	841	2.4768	21000
220	898	2.619648	22400
220	898	2.619648	23800
220	898	2.619648	25200
220	898	2.619648	26600
220	898	2.619648	28000
220	898	2.619648	29400
220	986	2.75872	28000
220	986	2.75872	26600
220	986	2.75872	25200
220	986	2.75872	26600
220	986	2.75872	28000
220	986	2.75872	29400
220	986	2.75872	30800
220	986	2.75872	32200
220	986	2.75872	33600
220	1069	3.025536	32200
220	1069	3.025536	30800
220	1069	3.025536	29400
220	1187	3.307968	28000
220	1187	3.307968	26600
220	1187	3.307968	25200
220	1187	3.307968	26600
220	1187	3.307968	28000
220	1187	3.307968	29400
220	1187	3.307968	30800
220	1187	3.307968	32200
220	1187	3.307968	33600
220	1187	3.307968	35000
220	1187	3.307968	36400
220	1187	3.307968	37800
220	1386	3.574656	36400
220	1386	3.574656	35000
220	1386	3.574656	33600
220	1496	3.856704	32200
220	1496	3.856704	30800
220	1496	3.856704	29400
220	1574	4.123392	28000
220	1574	4.123392	26600
220	1574	4.123392	25200
220	1674	4.40544	23800
220	1674	4.40544	22400
220	1674	4.40544	21000
220	1674	4.40544	22400
220	1674	4.40544	23800
220	1674	4.40544	25200
220	1674	4.40544	26600
220	1674	4.40544	28000
220	1674	4.40544	29400
220	1674	4.40544	30800
220	1674	4.40544	32200
220	1674	4.40544	33600
220	1674	4.40544	35000
220	1674	4.40544	36400
220	1674	4.40544	37800
220	2265	7.142432	36400
220	2265	7.142432	35000
220	2265	7.142432	33600
220	2265	7.142432	32200
220	2265	7.142432	30800
220	2265	7.142432	29400
220	2265	7.142432	28000
220	2265	7.142432	26600
220	2265	7.142432	25200
220	2265	7.142432	23800
220	2265	7.142432	22400
220	2265	7.142432	21000
220	2265	7.142432	19600
220	2265	7.142432	18200
220	2265	7.142432	16800
220	2265	7.142432	15400
220	2265	7.142432	14000
220	2265	7.142432	12600
220	2265	7.142432	11200
220	2265	7.142432	9800
220	2265	7.142432	8400
220	2265	7.142432	7000
220	2265	7.142432	5600
220	2265	7.142432	4200
220	2265	7.142432	2800
220	2265	7.142432	1400
220	2265	7.142432	0
220	2265	7.142432	1400
220	2265	7.142432	2800
220	2265	7.142432	4200
220	2287	7.149472	5600
220	2287	7.149472	7000
220	2287	7.149472	8400
220	2287	7.149472	9800
220	2287	7.149472	11200
220	2287	7.149472	12600
220	2287	7.149472	14000
220	2287	7.149472	15400
220	2287	7.149472	16800
220	2287	7.149472	18200
220	2287	7.149472	19600
220	2287	7.149472	21000
220	2396	7.697216	22400
220	2396	7.697216	23800
220	2396	7.697216	25200
220	2396	7.697216	26600
220	2396	7.697216	28000
220	2396	7.697216	29400
220	2995	9.259456	28000
220	2995	9.259456	26600
220	2995	9.259456	25200
220	2995	9.259456	23800
220	2995	9.259456	22400
220	2995	9.259456	21000
220	2995	9.259456	19600
220	2995	9.259456	18200
220	2995	9.259456	16800
220	2995	9.259456	15400
220	2995	9.259456	14000
220	2995	9.259456	12600
220	2995	9.259456	11200
220	2995	9.259456	9800
220	2995	9.259456	8400
220	2995	9.259456	7000
220	2995	9.259456	5600
220	2995	9.259456	4200
220	3003	9.261344	5600
220	3003	9.261344	7000
220	3003	9.261344	8400
220	3003	9.261344	9800
220	3003	9.261344	11200
220	3003	9.261344	12600
220	3003	9.261344	14000
220	3003	9.261344	15400
220	3003	9.261344	16800
220	3003	9.261344	18200
220	3003	9.261344	19600
220	3003	9.261344	21000
220	3220	9.81424	22400
220	3220	9.81424	23800
220	3220	9.81424	25200
220	3622	11.471904	23800
220	3622	11.471904	22400
220	3622	11.471904	21000
220	3641	11.479456	22400
220	3641	11.479456	23800
220	3641	11.479456	25200
220	3641	11.479456	26600
220	3641	11.479456	28000
220	3641	11.479456	29400
220	3641	11.479456	30800
220	3641	11.479456	32200
220	3641	11.479456	33600
220	3641	11.479456	35000
220	3641	11.479456	36400
220	3641	11.479456	37800
220	4061	14.389531981127	36400
220	4061	14.389531981127	35000
220	4061	14.389531981127	33600
220	4061	14.389531981127	32200
220	4061	14.389531981127	33600
220	4061	14.389531981127	35000
220	4061	14.389531981127	36400
220	4061	14.389531981127	37800
220	4061	14.389531981127	39200
220	4061	14.389531981127	40600
220	4072	14.480831465126	42000
220	4072	14.480831465126	43400
220	4072	14.480831465126	44800
220	4072	14.480831465126	46200
220	4072	14.480831465126	47600
220	4072	14.480831465126	49000
220	4072	14.480831465126	50400
220	4072	14.480831465126	51800
220	4072	14.480831465126	53200
220	4072	14.480831465126	54600
220	4072	14.480831465126	56000
220	4072	14.480831465126	57400
220	4072	14.480831465126	58800
220	4072	14.480831465126	60200
220	4072	14.480831465126	61600
220	4072	14.480831465126	63000
220	4072	14.480831465126	64400
220	4072	14.480831465126	65800
220	4072	14.480831465126	67200
220	4220	14.806363981127	65800
220	4220	14.806363981127	64400
220	4220	14.806363981127	63000
220	4220	14.806363981127	61600
220	4220	14.806363981127	60200
220	4220	14.806363981127	58800
220	4220	14.806363981127	57400
220	4220	14.806363981127	56000
220	4220	14.806363981127	54600
220	4220	14.806363981127	53200
220	4220	14.806363981127	51800
220	4220	14.806363981127	50400
220	4220	14.806363981127	49000
220	4220	14.806363981127	47600
220	4220	14.806363981127	46200
220	4220	14.806363981127	44800
220	4220	14.806363981127	43400
220	4220	14.806363981127	42000
220	4220	14.806363981127	40600
220	4220	14.806363981127	39200
220	4220	14.806363981127	37800
220	4220	14.806363981127	36400
220	4220	14.806363981127	35000
220	4708	16.592027981127	33600
220	4708	16.592027981127	32200
220	4708	16.592027981127	30800
220	4708	16.592027981127	29400
220	4708	16.592027981127	28000
220	4708	16.592027981127	26600
220	4708	16.592027981127	25200
220	4708	16.592027981127	23800
220	4708	16.592027981127	22400
220	4708	16.592027981127	21000
220	4708	16.592027981127	19600
220	4708	16.592027981127	18200
220	4764	16.941691981127	16800
220	4764	16.941691981127	15400
220	4764	16.941691981127	14000
220	4764	16.941691981127	15400
220	4764	16.941691981127	16800
220	4764	16.941691981127	18200
220	4764	16.941691981127	19600
220	4764	16.941691981127	21000
220	4764	16.941691981127	22400
220	4764	16.941691981127	23800
220	4764	16.941691981127	25200
220	4764	16.941691981127	26600
220	5128	18.538100072597	28000
220	5128	18.538100072597	29400
220	5128	18.538100072597	30800
220	5128	18.538100072597	32200
220	5128	18.538100072597	33600
220	5220	19.181148193639	32200
220	5220	19.181148193639	30800
220	5220	19.181148193639	29400
220	5220	19.181148193639	28000
220	5220	19.181148193639	26600
220	5220	19.181148193639	25200
220	5220	19.181148193639	23800
220	5220	19.181148193639	22400
220	5220	19.181148193639	23800
220	5220	19.181148193639	25200
220	5220	19.181148193639	26600
220	5220	19.181148193639	28000
220	5220	19.181148193639	29400
220	5220	19.181148193639	30800
220	5381	19.597980193639	29400
220	5381	19.597980193639	28000
220	5381	19.597980193639	26600
220	5381	19.597980193639	25200
220	5381	19.597980193639	23800
220	5381	19.597980193639	22400
220	5381	19.597980193639	21000
220	5381	19.597980193639	19600
220	5381	19.597980193639	18200
220	5381	19.597980193639	16800
220	5381	19.597980193639	15400
220	5381	19.597980193639	14000
220	5381	19.597980193639	12600
220	5381	19.597980193639	11200
220	5381	19.597980193639	9800
220	5381	19.597980193639	8400
220	5441	19.737948193639	9800
220	5441	19.737948193639	11200
220	5441	19.737948193639	12600
220	5441	19.737948193639	14000
220	5441	19.737948193639	15400
220	5441	19.737948193639	16800
220	5497	20.010300193639	18200
220	5497	20.010300193639	19600
220	5497	20.010300193639	21000
220	5497	20.010300193639	22400
220	5497	20.010300193639	23800
220	5497	20.010300193639	25200
220	5574	20.430428193639	26600
220	5574	20.430428193639	28000
220	5574	20.430428193639	29400
220	5574	20.430428193639	30800
220	5574	20.430428193639	32200
220	5574	20.430428193639	33600
220	5644	20.851580193639	35000
220	5644	20.851580193639	36400
220	5644	20.851580193639	37800
220	5802	21.692348193639	39200
220	5802	21.692348193639	40600
220	5802	21.692348193639	42000
220	5802	21.692348193639	43400
220	5802	21.692348193639	44800
220	5802	21.692348193639	46200
220	6022	22.246748193639	44800
220	6022	22.246748193639	43400
220	6022	22.246748193639	42000
220	6022	22.246748193639	40600
220	6022	22.246748193639	39200
220	6022	22.246748193639	37800
220	6022	22.246748193639	36400
220	6022	22.246748193639	35000
220	6022	22.246748193639	33600
220	6022	22.246748193639	32200
220	6022	22.246748193639	30800
220	6022	22.246748193639	29400
220	6022	22.246748193639	28000
220	6022	22.246748193639	26600
220	6022	22.246748193639	25200
220	6022	22.246748193639	23800
220	6022	22.246748193639	22400
220	6022	22.246748193639	21000
220	6070	22.487676193639	22400
220	6070	22.487676193639	23800
220	6070	22.487676193639	25200
220	6070	22.487676193639	26600
220	6070	22.487676193639	28000
220	6070	22.487676193639	29400
220	6070	22.487676193639	30800
220	6070	22.487676193639	32200
220	6070	22.487676193639	33600
220	6225	23.042460193639	32200
220	6225	23.042460193639	30800
220	6225	23.042460193639	29400
220	6225	23.042460193639	28000
220	6225	23.042460193639	26600
220	6225	23.042460193639	25200
220	6225	23.042460193639	23800
220	6225	23.042460193639	22400
220	6225	23.042460193639	21000
220	6225	23.042460193639	19600
220	6225	23.042460193639	18200
220	6225	23.042460193639	16800
220	6263	23.179644193639	18200
220	6263	23.179644193639	19600
220	6263	23.179644193639	21000
220	6263	23.179644193639	22400
220	6263	23.179644193639	23800
220	6263	23.179644193639	25200
220	6593	24.140316193639	26600
220	6593	24.140316193639	28000
220	6593	24.140316193639	29400
220	6593	24.140316193639	30800
220	6593	24.140316193639	32200
220	6593	24.140316193639	33600
220	6774	24.695100193639	32200
220	6774	24.695100193639	30800
220	6774	24.695100193639	29400
220	6774	24.695100193639	28000
220	6774	24.695100193639	26600
220	6774	24.695100193639	25200
220	6774	24.695100193639	23800
220	6774	24.695100193639	22400
220	6774	24.695100193639	21000
220	6993	25.526140193639	19600
220	6993	25.526140193639	18200
220	6993	25.526140193639	16800
220	6993	25.526140193639	15400
220	6993	25.526140193639	14000
220	6993	25.526140193639	12600
220	6993	25.526140193639	11200
220	6993	25.526140193639	9800
220	6993	25.526140193639	8400
220	6993	25.526140193639	7000
220	6993	25.526140193639	5600
220	6993	25.526140193639	4200
220	6993	25.526140193639	2800
220	6993	25.526140193639	1400
220	6993	25.526140193639	0
220	6993	25.526140193639	1400
220	6993	25.526140193639	2800
220	6993	25.526140193639	4200
220	7015	25.533692193639	5600
220	7015	25.533692193639	7000
220	7015	25.533692193639	8400
220	7015	25.533692193639	9800
220	7015	25.533692193639	11200
220	7015	25.533692193639	12600
220	7015	25.533692193639	14000
220	7015	25.533692193639	15400
220	7015	25.533692193639	16800
220	7015	25.533692193639	18200
220	7015	25.533692193639	19600
220	7015	25.533692193639	21000
220	7041	25.695100193639	22400
220	7041	25.695100193639	23800
220	7041	25.695100193639	25200
220	7041	25.695100193639	26600
220	7041	25.695100193639	28000
220	7041	25.695100193639	29400
220	7041	25.695100193639	30800
220	7041	25.695100193639	32200
220	7041	25.695100193639	33600
220	7041	25.695100193639	35000
220	7298	26.776700193639	36400
220	7298	26.776700193639	37800
220	7298	26.776700193639	39200
220	7475	27.453532193639	37800
220	7475	27.453532193639	36400
220	7475	27.453532193639	35000
220	7537	27.729660193639	33600
220	7537	27.729660193639	32200
220	7537	27.729660193639	30800
220	7537	27.729660193639	29400
220	7537	27.729660193639	28000
220	7537	27.729660193639	26600
220	7537	27.729660193639	25200
220	7537	27.729660193639	23800
220	7537	27.729660193639	22400
220	7537	27.729660193639	21000
220	7570	27.873148193639	22400
220	7570	27.873148193639	23800
220	7570	27.873148193639	25200
220	7570	27.873148193639	26600
220	7570	27.873148193639	28000
220	7570	27.873148193639	29400
220	7570	27.873148193639	30800
220	7570	27.873148193639	32200
220	7570	27.873148193639	33600
220	7570	27.873148193639	35000
220	7570	27.873148193639	36400
220	7570	27.873148193639	37800
220	7886	29.429948193639	39200
220	7886	29.429948193639	40600
220	7886	29.429948193639	42000
220	7886	29.429948193639	43400
220	7886	29.429948193639	44800
220	7886	29.429948193639	46200
220	7886	29.429948193639	47600
220	7886	29.429948193639	49000
220	7886	29.429948193639	50400
220	7886	29.429948193639	51800
220	7886	29.429948193639	53200
220	7886	29.429948193639	54600
220	8090	29.526396193639	53200
220	8090	29.526396193639	51800
220	8090	29.526396193639	50400
220	8090	29.526396193639	49000
220	8090	29.526396193639	47600
220	8090	29.526396193639	46200
220	8090	29.526396193639	44800
220	8090	29.526396193639	43400
220	8090	29.526396193639	42000
220	8090	29.526396193639	40600
220	8090	29.526396193639	39200
220	8090	29.526396193639	37800
220	8090	29.526396193639	36400
220	8090	29.526396193639	35000
220	8090	29.526396193639	33600
220	8090	29.526396193639	32200
220	8090	29.526396193639	30800
220	8090	29.526396193639	29400
220	8090	29.526396193639	28000
220	8090	29.526396193639	26600
220	8090	29.526396193639	25200
220	8090	29.526396193639	23800
220	8090	29.526396193639	22400
220	8203	29.984732193639	23800
220	8203	29.984732193639	25200
220	8203	29.984732193639	26600
220	8314	30.404860193639	28000
220	8314	30.404860193639	29400
220	8314	30.404860193639	30800
220	8373	30.542044193639	32200
220	8373	30.542044193639	33600
220	8373	30.542044193639	35000
220	8373	30.542044193639	36400
220	8373	30.542044193639	37800
220	8373	30.542044193639	39200
220	8689	32.090268193639	40600
220	8689	32.090268193639	42000
220	8689	32.090268193639	43400
220	8689	32.090268193639	44800
220	8689	32.090268193639	46200
220	8689	32.090268193639	47600
220	8689	32.090268193639	49000
220	8739	32.181692193639	47600
220	8739	32.181692193639	46200
220	8739	32.181692193639	44800
220	8856	32.463612193639	43400
220	8856	32.463612193639	42000
220	8856	32.463612193639	40600
220	8856	32.463612193639	39200
220	8856	32.463612193639	37800
220	8856	32.463612193639	36400
220	8856	32.463612193639	35000
220	8856	32.463612193639	33600
220	8856	32.463612193639	32200
220	8856	32.463612193639	30800
220	8856	32.463612193639	29400
220	8856	32.463612193639	28000
220	8856	32.463612193639	26600
220	8856	32.463612193639	25200
220	8856	32.463612193639	23800
220	8856	32.463612193639	22400
220	8856	32.463612193639	21000
220	8856	32.463612193639	19600
220	8856	32.463612193639	18200
220	8856	32.463612193639	16800
220	8856	32.463612193639	15400
220	8904	32.645052193639	16800
220	8904	32.645052193639	18200
220	8904	32.645052193639	19600
220	8904	32.645052193639	21000
220	8904	32.645052193639	22400
220	8904	32.645052193639	23800
220	8984	32.876924193639	22400
220	8984	32.876924193639	21000
220	8984	32.876924193639	19600
220	8984	32.876924193639	21000
220	8984	32.876924193639	22400
220	8984	32.876924193639	23800
220	8984	32.876924193639	25200
220	8984	32.876924193639	26600
220	8984	32.876924193639	28000
220	9097	33.194588193639	29400
220	9097	33.194588193639	30800
220	9097	33.194588193639	32200
220	9619	34.613980193639	30800
220	9619	34.613980193639	29400
220	9619	34.613980193639	28000
220	9619	34.613980193639	26600
220	9619	34.613980193639	25200
220	9619	34.613980193639	23800
220	9619	34.613980193639	22400
220	9619	34.613980193639	21000
220	9619	34.613980193639	19600
220	9619	34.613980193639	18200
220	9619	34.613980193639	16800
220	9619	34.613980193639	15400
220	9619	34.613980193639	14000
[...]
343	25586	92.221060205504	2205000
343	25587	92.221060205504	2206400
343	25651	92.495428205504	2207800
343	25652	92.495428205504	2209200
343	25653	92.495428205504	2210600
343	25697	92.769796205504	2212000
343	25698	92.769796205504	2213400
343	25699	92.769796205504	2214800
343	25740	93.044164205504	2216200
343	25742	93.044164205504	2217600
343	25743	93.044164205504	2219000
343	25744	93.044164205504	2220400
343	25745	93.044164205504	2221800
343	25746	93.044164205504	2223200
343	25747	93.044164205504	2224600
343	25748	93.044164205504	2226000
343	25749	93.044164205504	2227400
343	25750	93.044164205504	2228800
343	26163	94.697188205504	2230200
343	26164	94.697188205504	2231600
343	26166	94.697188205504	2233000
343	26167	94.697188205504	2234400
343	26168	94.697188205504	2235800
343	26169	94.697188205504	2237200
343	26170	94.697188205504	2238600
343	26171	94.697188205504	2240000
343	26172	94.697188205504	2241400
343	26173	94.697188205504	2242800
343	26174	94.697188205504	2244200
343	26176	94.697188205504	2245600
343	26177	94.697188205504	2247000
343	26178	94.697188205504	2248400
343	26179	94.697188205504	2249800
343	26180	94.697188205504	2251200
343	26181	94.697188205504	2252600
343	26182	94.697188205504	2254000
343	26183	94.697188205504	2255400
343	26184	94.697188205504	2256800
343	26185	94.697188205504	2258200
343	26186	94.697188205504	2259600
343	26187	94.697188205504	2261000
343	26188	94.697188205504	2262400
343	26189	94.697188205504	2263800
343	26190	94.697188205504	2265200
343	26191	94.697188205504	2266600
343	26192	94.697188205504	2268000
343	26193	94.697188205504	2269400
343	26194	94.697188205504	2270800
343	26195	94.697188205504	2272200
343	26196	94.697188205504	2273600
343	26197	94.697188205504	2275000
343	26198	94.697188205504	2276400
343	26199	94.697188205504	2277800
343	26200	94.697188205504	2279200
343	26201	94.697188205504	2280600
343	26202	94.697188205504	2282000
343	26203	94.697188205504	2283400
343	26204	94.697188205504	2284800
343	26205	94.697188205504	2286200
343	26206	94.697188205504	2287600
343	26207	94.697188205504	2289000
343	26208	94.697188205504	2290400
343	26209	94.697188205504	2291800
343	26210	94.697188205504	2293200
343	26211	94.697188205504	2294600
343	26494	95.944324205504	2296000
343	26495	95.944324205504	2297400
343	26496	95.944324205504	2298800
343	26565	96.081508205504	2300200
343	26566	96.081508205504	2301600
343	26567	96.081508205504	2303000
343	26568	96.081508205504	2304400
343	26569	96.081508205504	2305800
343	26570	96.081508205504	2307200
343	26571	96.081508205504	2308600
343	26864	96.767044205504	2310000
343	26865	96.767044205504	2311400
343	26866	96.767044205504	2312800
343	26867	96.767044205504	2314200
343	26868	96.767044205504	2315600
343	26869	96.767044205504	2317000
343	26870	96.767044205504	2318400
343	26871	96.767044205504	2319800
343	26872	96.767044205504	2321200
343	26873	96.767044205504	2322600
343	26874	96.767044205504	2324000
343	26875	96.767044205504	2325400
343	26876	96.767044205504	2326800
343	26877	96.767044205504	2328200
343	26878	96.767044205504	2329600
343	26879	96.767044205504	2331000
343	26880	96.767044205504	2332400
343	26881	96.767044205504	2333800
343	26882	96.767044205504	2335200
343	26883	96.767044205504	2336600
343	26884	96.767044205504	2338000
343	26885	96.767044205504	2339400
343	26886	96.767044205504	2340800
343	26887	96.767044205504	2342200
343	26913	96.898180205504	2343600
343	26914	96.898180205504	2345000
343	26915	96.898180205504	2346400
343	27009	97.172548205504	2347800
343	27010	97.172548205504	2349200
343	27011	97.172548205504	2350600
343	27012	97.172548205504	2352000
343	27013	97.172548205504	2353400
343	27014	97.172548205504	2354800
343	27015	97.172548205504	2356200
343	27016	97.172548205504	2357600
343	27017	97.172548205504	2359000
343	27126	97.446916205504	2360400
343	27127	97.446916205504	2361800
343	27128	97.446916205504	2363200
343	27223	97.721284205504	2364600
343	27224	97.721284205504	2366000
343	27225	97.721284205504	2367400
343	27317	97.995652205504	2368800
343	27318	97.995652205504	2370200
343	27319	97.995652205504	2371600
343	27320	97.995652205504	2373000
343	27321	97.995652205504	2374400
343	27322	97.995652205504	2375800
343	27323	97.995652205504	2377200
343	27324	97.995652205504	2378600
343	27325	97.995652205504	2380000
343	27326	97.995652205504	2381400
343	27327	97.995652205504	2382800
343	27328	97.995652205504	2384200
343	27424	98.270020205504	2385600
343	27425	98.270020205504	2387000
343	27426	98.270020205504	2388400
343	27521	98.544388205504	2389800
343	27522	98.544388205504	2391200
343	27523	98.544388205504	2392600
343	27524	98.544388205504	2394000
343	27525	98.544388205504	2395400
343	27526	98.544388205504	2396800
343	27527	98.544388205504	2398200
343	27528	98.544388205504	2399600
343	27529	98.544388205504	2401000
343	27530	98.544388205504	2402400
343	27531	98.544388205504	2403800
343	27532	98.544388205504	2405200
343	27628	98.818756205504	2406600
343	27629	98.818756205504	2408000
343	27630	98.818756205504	2409400
343	27725	99.093124205504	2410800
343	27726	99.093124205504	2412200
343	27727	99.093124205504	2413600
343	27728	99.093124205504	2415000
343	27729	99.093124205504	2416400
343	27730	99.093124205504	2417800
343	27731	99.093124205504	2419200
343	27732	99.093124205504	2420600
343	27733	99.093124205504	2422000
343	28011	101.021252205504	2423400
343	28012	101.021252205504	2424800
343	28014	101.021252205504	2426200
343	28015	101.021252205504	2427600
343	28016	101.021252205504	2429000
343	28017	101.021252205504	2430400
343	28018	101.021252205504	2431800
343	28019	101.021252205504	2433200
343	28020	101.021252205504	2434600
343	28021	101.021252205504	2436000
343	28022	101.021252205504	2437400
343	28024	101.021252205504	2438800
343	28025	101.021252205504	2440200
343	28026	101.021252205504	2441600
343	28027	101.021252205504	2443000
343	28028	101.021252205504	2444400
343	28029	101.021252205504	2445800
343	28030	101.021252205504	2447200
343	28031	101.021252205504	2448600
343	28032	101.021252205504	2450000
343	28033	101.021252205504	2451400
343	28034	101.021252205504	2452800
343	28035	101.021252205504	2454200
343	28036	101.021252205504	2455600
343	28037	101.021252205504	2457000
343	28038	101.021252205504	2458400
343	28039	101.021252205504	2459800
343	28040	101.021252205504	2461200
343	28041	101.021252205504	2462600
343	28042	101.021252205504	2464000
343	28043	101.021252205504	2465400
343	28044	101.021252205504	2466800
343	28045	101.021252205504	2468200
343	28046	101.021252205504	2469600
343	28047	101.021252205504	2471000
343	28048	101.021252205504	2472400
343	28049	101.021252205504	2473800
343	28050	101.021252205504	2475200
343	28051	101.021252205504	2476600
343	28052	101.021252205504	2478000
343	28053	101.021252205504	2479400
343	28054	101.021252205504	2480800
343	28055	101.021252205504	2482200
343	28056	101.021252205504	2483600
343	28057	101.021252205504	2485000
343	28058	101.021252205504	2486400
343	28059	101.021252205504	2487800
343	28554	102.414756205504	2489200
343	28555	102.414756205504	2490600
343	28556	102.414756205504	2492000
343	28601	102.551940205504	2493400
343	28602	102.551940205504	2494800
343	28603	102.551940205504	2496200
343	28668	102.735684205504	2497600
343	28669	102.735684205504	2499000
343	28670	102.735684205504	2500400
343	28671	102.735684205504	2501800
343	28672	102.735684205504	2503200
343	28673	102.735684205504	2504600
343	28674	102.735684205504	2506000
343	28675	102.735684205504	2507400
343	28676	102.735684205504	2508800
343	28677	102.735684205504	2510200
343	28678	102.735684205504	2511600
343	28679	102.735684205504	2513000
343	28680	102.735684205504	2514400
343	28681	102.735684205504	2515800
343	28682	102.735684205504	2517200
343	28683	102.735684205504	2518600
343	28684	102.735684205504	2520000
343	28685	102.735684205504	2521400
343	28686	102.735684205504	2522800
343	28687	102.735684205504	2524200
343	28688	102.735684205504	2525600
343	28689	102.735684205504	2527000
343	28732	102.948868205504	2528400
343	28733	102.948868205504	2529800
343	28734	102.948868205504	2531200
343	28807	103.223236205504	2532600
343	28808	103.223236205504	2534000
343	28809	103.223236205504	2535400
343	28810	103.223236205504	2536800
343	28811	103.223236205504	2538200
343	28812	103.223236205504	2539600
343	28813	103.223236205504	2541000
343	28814	103.223236205504	2542400
343	28815	103.223236205504	2543800
343	28907	103.501124205504	2545200
343	28908	103.501124205504	2546600
343	28909	103.501124205504	2548000
343	28910	103.501124205504	2549400
343	28911	103.501124205504	2550800
343	28912	103.501124205504	2552200
343	29425	105.696068205504	2553600
343	29426	105.696068205504	2555000
343	29428	105.696068205504	2556400
343	29429	105.696068205504	2557800
343	29430	105.696068205504	2559200
343	29431	105.696068205504	2560600
343	29432	105.696068205504	2562000
343	29433	105.696068205504	2563400
343	29434	105.696068205504	2564800
343	29435	105.696068205504	2566200
343	29436	105.696068205504	2567600
343	29438	105.696068205504	2569000
343	29439	105.696068205504	2570400
343	29440	105.696068205504	2571800
343	29441	105.696068205504	2573200
343	29442	105.696068205504	2574600
343	29443	105.696068205504	2576000
343	29444	105.696068205504	2577400
343	29445	105.696068205504	2578800
343	29446	105.696068205504	2580200
343	29447	105.696068205504	2581600
343	29448	105.696068205504	2583000
343	29449	105.696068205504	2584400
343	29450	105.696068205504	2585800
343	29451	105.696068205504	2587200
343	29452	105.696068205504	2588600
343	29453	105.696068205504	2590000
343	29454	105.696068205504	2591400
343	29455	105.696068205504	2592800
343	29456	105.696068205504	2594200
343	29457	105.696068205504	2595600
343	29458	105.696068205504	2597000
343	29459	105.696068205504	2598400
343	29460	105.696068205504	2599800
343	29461	105.696068205504	2601200
343	29462	105.696068205504	2602600
343	29463	105.696068205504	2604000
343	29464	105.696068205504	2605400
343	29465	105.696068205504	2606800
343	29466	105.696068205504	2608200
343	29467	105.696068205504	2609600
343	29468	105.696068205504	2611000
343	29469	105.696068205504	2612400
343	29470	105.696068205504	2613800
343	29471	105.696068205504	2615200
343	29472	105.696068205504	2616600
343	29473	105.696068205504	2618000
343	29655	106.80705958444	2619400
343	29656	106.80705958444	2620800
343	29657	106.80705958444	2622200
343	29835	107.08142758444	2623600
343	29836	107.08142758444	2625000
343	29837	107.08142758444	2626400
343	29917	107.35579558444	2627800
343	29918	107.35579558444	2629200
343	29919	107.35579558444	2630600
343	30398	110.726388237402	2632000
343	30399	110.726388237402	2633400
343	30401	110.726388237402	2634800
343	30402	110.726388237402	2636200
343	30403	110.726388237402	2637600
343	30404	110.726388237402	2639000
343	30405	110.726388237402	2640400
343	30406	110.726388237402	2641800
343	30407	110.726388237402	2643200
343	30408	110.726388237402	2644600
343	30409	110.726388237402	2646000
343	30411	110.726388237402	2647400
343	30412	110.726388237402	2648800
343	30413	110.726388237402	2650200
343	30414	110.726388237402	2651600
343	30415	110.726388237402	2653000
343	30416	110.726388237402	2654400
343	30417	110.726388237402	2655800
343	30418	110.726388237402	2657200
343	30419	110.726388237402	2658600
343	30420	110.726388237402	2660000
343	30421	110.726388237402	2661400
343	30422	110.726388237402	2662800
343	30423	110.726388237402	2664200
343	30424	110.726388237402	2665600
343	30425	110.726388237402	2667000
343	30426	110.726388237402	2668400
343	30427	110.726388237402	2669800
343	30428	110.726388237402	2671200
343	30429	110.726388237402	2672600
343	30430	110.726388237402	2674000
343	30431	110.726388237402	2675400
343	30432	110.726388237402	2676800
343	30433	110.726388237402	2678200
343	30434	110.726388237402	2679600
343	30435	110.726388237402	2681000
343	30436	110.726388237402	2682400
343	30437	110.726388237402	2683800
343	30438	110.726388237402	2685200
343	30439	110.726388237402	2686600
343	30440	110.726388237402	2688000
343	30441	110.726388237402	2689400
343	30527	111.007668237402	2690800
343	30528	111.007668237402	2692200
343	30529	111.007668237402	2693600
343	30530	111.007668237402	2695000
343	30531	111.007668237402	2696400
343	30532	111.007668237402	2697800
343	30841	112.402580237402	2699200
343	30842	112.402580237402	2700600
343	30843	112.402580237402	2702000
343	30844	112.402580237402	2703400
343	30991	113.094932237402	2704800
343	30992	113.094932237402	2706200
343	30993	113.094932237402	2707600
343	31057	113.232116237402	2709000
343	31058	113.232116237402	2710400
343	31059	113.232116237402	2711800
343	31061	113.232116237402	2713200
343	31062	113.232116237402	2714600
343	31063	113.232116237402	2716000
343	31064	113.232116237402	2717400
343	31065	113.232116237402	2718800
343	31066	113.232116237402	2720200
343	31067	113.232116237402	2721600
343	31068	113.232116237402	2723000
343	31069	113.232116237402	2724400
343	31070	113.232116237402	2725800
343	31071	113.232116237402	2727200
343	31072	113.232116237402	2728600
343	31073	113.232116237402	2730000
343	31074	113.232116237402	2731400
343	31075	113.232116237402	2732800
343	31076	113.232116237402	2734200
343	31077	113.232116237402	2735600
343	31078	113.232116237402	2737000
343	31079	113.232116237402	2738400
343	31080	113.232116237402	2739800
343	31081	113.232116237402	2741200
343	31601	115.131252237402	2742600
343	31602	115.131252237402	2744000
343	31604	115.131252237402	2745400
343	31605	115.131252237402	2746800
343	31606	115.131252237402	2748200
343	31607	115.131252237402	2749600
343	31608	115.131252237402	2751000
343	31609	115.131252237402	2752400
343	31610	115.131252237402	2753800
343	31611	115.131252237402	2755200
343	31612	115.131252237402	2756600
343	31614	115.131252237402	2758000
343	31615	115.131252237402	2759400
343	31616	115.131252237402	2760800
343	31617	115.131252237402	2762200
343	31618	115.131252237402	2763600
343	31619	115.131252237402	2765000
343	31620	115.131252237402	2766400
343	31621	115.131252237402	2767800
343	31622	115.131252237402	2769200
343	31623	115.131252237402	2770600
343	31709	115.413684237402	2772000
343	31710	115.413684237402	2773400
343	31711	115.413684237402	2774800
343	31712	115.413684237402	2776200
343	31713	115.413684237402	2777600
343	31714	115.413684237402	2779000
343	31715	115.413684237402	2780400
343	31716	115.413684237402	2781800
343	31717	115.413684237402	2783200
343	31718	115.413684237402	2784600
343	31719	115.413684237402	2786000
343	31720	115.413684237402	2787400
343	31721	115.413684237402	2788800
343	31722	115.413684237402	2790200
343	31723	115.413684237402	2791600
343	31724	115.413684237402	2793000
343	31725	115.413684237402	2794400
343	31726	115.413684237402	2795800
343	31727	115.413684237402	2797200
343	31728	115.413684237402	2798600
343	31729	115.413684237402	2800000
343	31730	115.413684237402	2801400
343	31731	115.413684237402	2802800
343	31732	115.413684237402	2804200
343	31733	115.413684237402	2805600
343	31734	115.413684237402	2807000
343	31735	115.413684237402	2808400
343	31736	115.413684237402	2809800
343	31737	115.413684237402	2811200
343	31979	116.106644237402	2812600
343	31980	116.106644237402	2814000
343	31981	116.106644237402	2815400
343	32034	116.243828237402	2816800
343	32035	116.243828237402	2818200
343	32036	116.243828237402	2819600
343	32072	116.290388237402	2821000
343	32073	116.290388237402	2822400
343	32074	116.290388237402	2823800
343	32075	116.290388237402	2825200
343	32076	116.290388237402	2826600
343	32077	116.290388237402	2828000
343	32078	116.290388237402	2829400
343	32079	116.290388237402	2830800
343	32080	116.290388237402	2832200
343	32081	116.290388237402	2833600
343	32146	116.518196237402	2835000
343	32147	116.518196237402	2836400
343	32148	116.518196237402	2837800
343	32149	116.518196237402	2839200
343	32150	116.518196237402	2840600
343	32151	116.518196237402	2842000
343	32152	116.518196237402	2843400
343	32153	116.518196237402	2844800
343	32154	116.518196237402	2846200
343	32155	116.518196237402	2847600
343	32156	116.518196237402	2849000
343	32157	116.518196237402	2850400
343	32158	116.518196237402	2851800
343	32159	116.518196237402	2853200
343	32160	116.518196237402	2854600
343	32231	116.792564237402	2856000
343	32232	116.792564237402	2857400
343	32233	116.792564237402	2858800
343	32308	117.066932237402	2860200
343	32309	117.066932237402	2861600
343	32310	117.066932237402	2863000
343	32417	117.341300237402	2864400
343	32418	117.341300237402	2865800
343	32419	117.341300237402	2867200
343	32505	117.615668237402	2868600
343	32506	117.615668237402	2870000
343	32507	117.615668237402	2871400
343	32508	117.615668237402	2872800
343	32509	117.615668237402	2874200
343	32510	117.615668237402	2875600
343	32699	117.890036237402	2877000
343	32700	117.890036237402	2878400
343	32701	117.890036237402	2879800
343	32702	117.890036237402	2881200
343	32703	117.890036237402	2882600
343	32704	117.890036237402	2884000
343	32705	117.890036237402	2885400
343	32706	117.890036237402	2886800
343	32707	117.890036237402	2888200
343	32708	117.890036237402	2889600
343	32709	117.890036237402	2891000
343	32710	117.890036237402	2892400
343	32711	117.890036237402	2893800
343	32712	117.890036237402	2895200
343	32713	117.890036237402	2896600
343	32714	117.890036237402	2898000
343	32715	117.890036237402	2899400
343	32716	117.890036237402	2900800
343	32717	117.890036237402	2902200
343	32718	117.890036237402	2903600
343	32719	117.890036237402	2905000
343	32787	118.164404237402	2906400
343	32788	118.164404237402	2907800
343	32789	118.164404237402	2909200
343	32790	118.164404237402	2910600
343	32791	118.164404237402	2912000
343	32792	118.164404237402	2913400
343	32883	118.438772237402	2914800
343	32884	118.438772237402	2916200
343	32885	118.438772237402	2917600
343	32976	118.713140237402	2919000
343	32977	118.713140237402	2920400
343	32978	118.713140237402	2921800
343	33074	118.987508237402	2923200
343	33075	118.987508237402	2924600
343	33076	118.987508237402	2926000
343	33077	118.987508237402	2927400
343	33078	118.987508237402	2928800
343	33079	118.987508237402	2930200
343	33080	118.987508237402	2931600
343	33081	118.987508237402	2933000
343	33082	118.987508237402	2934400
343	33177	119.261876237402	2935800
343	33178	119.261876237402	2937200
343	33179	119.261876237402	2938600
343	33250	119.536244237402	2940000
343	33251	119.536244237402	2941400
343	33252	119.536244237402	2942800
343	33253	119.536244237402	2944200
343	33254	119.536244237402	2945600
343	33255	119.536244237402	2947000
343	33256	119.536244237402	2948400
343	33257	119.536244237402	2949800
343	33258	119.536244237402	2951200
343	33259	119.536244237402	2952600
343	33260	119.536244237402	2954000
343	33261	119.536244237402	2955400
343	33262	119.536244237402	2956800
343	33263	119.536244237402	2958200
343	33264	119.536244237402	2959600
343	33342	119.810612237402	2961000
343	33343	119.810612237402	2962400
343	33344	119.810612237402	2963800
343	33345	119.810612237402	2965200
343	33346	119.810612237402	2966600
343	33347	119.810612237402	2968000
343	33348	119.810612237402	2969400
343	33349	119.810612237402	2970800
343	33350	119.810612237402	2972200
343	33425	120.084980237402	2973600
343	33426	120.084980237402	2975000
343	33427	120.084980237402	2976400
343	33428	120.084980237402	2977800
343	33429	120.084980237402	2979200
343	33430	120.084980237402	2980600
343	33529	120.359348237402	2982000
343	33530	120.359348237402	2983400
343	33531	120.359348237402	2984800
343	33626	120.633716237402	2986200
343	33627	120.633716237402	2987600
343	33628	120.633716237402	2989000
343	33629	120.633716237402	2990400
343	33630	120.633716237402	2991800
343	33631	120.633716237402	2993200
343	33632	120.633716237402	2994600
343	33633	120.633716237402	2996000
343	33634	120.633716237402	2997400
343	33635	120.633716237402	2998800
343	33636	120.633716237402	3000200
343	33637	120.633716237402	3001600
343	33638	120.633716237402	3003000
343	33639	120.633716237402	3004400
343	33640	120.633716237402	3005800
343	33748	120.908084237402	3007200
343	33749	120.908084237402	3008600
343	33750	120.908084237402	3010000
