version 2
run General-0-20180703-21:21:52-4189
attr configname General
attr datetime 20180703-21:21:52
attr experiment General
attr inifile omnetpp.ini
attr iterationvars ""
attr iterationvars2 $repetition=0
attr measurement ""
attr network multi
attr processid 4189
attr repetition 0
attr replication #0
attr resultdir results
attr runnumber 0
attr seedset 0
param **.cli*.numTcpApps 0
param **.cli*.sctpApp[*].typename "\"SCTPClient\""
param **.cli*.tcpApp[*].typename "\"TCPBasicClientApp\""
param **.cli1.numSctpApps 1
param **.cli1.sctpApp[0].connectAddress "\"10.1.3.1\""
param **.cli1.sctpApp[0].connectPort 6666
param **.cli1.sctpApp[0].localAddress "\"10.1.1.1 10.2.1.1\""
param **.cli1.sctpApp[0].numRequestsPerSession 100000000
param **.cli1.sctpApp[0].outboundStreams 1
param **.cli1.sctpApp[0].primaryPath "\"10.1.3.1\""
param **.cli1.sctpApp[0].queueSize 100
param **.cli1.sctpApp[0].requestLength 1400
param **.cli1.sctpApp[0].startTime 1s
param **.cli1.sctpApp[0].stopTime 120s
param **.numUdpApps 0
param **.ppp[*].queue.frameCapacity 20
param **.ppp[*].queueType "\"DropTailQueue\""
param **.srv1.numSctpApps 1
param **.srv1.numTcpApps 0
param **.srv1.sctpApp[*].typename "\"SCTPServer\""
param **.srv1.sctpApp[0].bytesToPush 0
param **.srv1.sctpApp[0].localAddress "\"10.1.3.1 10.2.3.1\""
param **.srv1.sctpApp[0].localPort 6666
param **.srv1.sctpApp[0].numPacketsToReceivePerClient 0
param **.srv1.sctpApp[0].numPacketsToSendPerClient 0
param **.srv1.sctpApp[0].outboundStreams 1
param **.srv1.sctpApp[0].queueSize 0
param **.srv1.sctpApp[0].readingInterval 0
param **.srv1.tcpApp[*].typename "\"TCPSinkApp\""
param **.udpApp[*].typename "\"UDPApp\""
param multi.testTimeout 0s
param multi.testing false

vector 11  multi.cli1.ppp[0].queue  queueLength:vector  ETV
attr interpolationmode  sample-hold
attr title  "queue length, vector"
vector 12  multi.cli1.ppp[0].ppp  txState:vector  ETV
attr interpolationmode  sample-hold
attr title  "tx state, vector"
vector 22  multi.cli1.ppp[1].queue  queueLength:vector  ETV
attr interpolationmode  sample-hold
attr title  "queue length, vector"
vector 23  multi.cli1.ppp[1].ppp  txState:vector  ETV
attr interpolationmode  sample-hold
attr title  "tx state, vector"
vector 38  multi.srv1.ppp[0].queue  queueLength:vector  ETV
attr interpolationmode  sample-hold
attr title  "queue length, vector"
vector 39  multi.srv1.ppp[0].ppp  txState:vector  ETV
attr interpolationmode  sample-hold
attr title  "tx state, vector"
vector 49  multi.srv1.ppp[1].queue  queueLength:vector  ETV
attr interpolationmode  sample-hold
attr title  "queue length, vector"
vector 50  multi.srv1.ppp[1].ppp  txState:vector  ETV
attr interpolationmode  sample-hold
attr title  "tx state, vector"
vector 65  multi.router1.ppp[0].queue  queueLength:vector  ETV
attr interpolationmode  sample-hold
attr title  "queue length, vector"
vector 66  multi.router1.ppp[0].ppp  txState:vector  ETV
attr interpolationmode  sample-hold
attr title  "tx state, vector"
vector 76  multi.router1.ppp[1].queue  queueLength:vector  ETV
attr interpolationmode  sample-hold
attr title  "queue length, vector"
vector 77  multi.router1.ppp[1].ppp  txState:vector  ETV
attr interpolationmode  sample-hold
attr title  "tx state, vector"
vector 92  multi.router2.ppp[0].queue  queueLength:vector  ETV
attr interpolationmode  sample-hold
attr title  "queue length, vector"
vector 93  multi.router2.ppp[0].ppp  txState:vector  ETV
attr interpolationmode  sample-hold
attr title  "tx state, vector"
vector 103  multi.router2.ppp[1].queue  queueLength:vector  ETV
attr interpolationmode  sample-hold
attr title  "queue length, vector"
vector 104  multi.router2.ppp[1].ppp  txState:vector  ETV
attr interpolationmode  sample-hold
attr title  "tx state, vector"
vector 119  multi.router3.ppp[0].queue  queueLength:vector  ETV
attr interpolationmode  sample-hold
attr title  "queue length, vector"
vector 120  multi.router3.ppp[0].ppp  txState:vector  ETV
attr interpolationmode  sample-hold
attr title  "tx state, vector"
vector 130  multi.router3.ppp[1].queue  queueLength:vector  ETV
attr interpolationmode  sample-hold
attr title  "queue length, vector"
vector 131  multi.router3.ppp[1].ppp  txState:vector  ETV
attr interpolationmode  sample-hold
attr title  "tx state, vector"
vector 146  multi.router4.ppp[0].queue  queueLength:vector  ETV
attr interpolationmode  sample-hold
attr title  "queue length, vector"
vector 147  multi.router4.ppp[0].ppp  txState:vector  ETV
attr interpolationmode  sample-hold
attr title  "tx state, vector"
vector 157  multi.router4.ppp[1].queue  queueLength:vector  ETV
attr interpolationmode  sample-hold
attr title  "queue length, vector"
vector 158  multi.router4.ppp[1].ppp  txState:vector  ETV
attr interpolationmode  sample-hold
attr title  "tx state, vector"
vector 186  multi.srv1.sctp  "Throughput of Association 2"  ETV
vector 208  multi.cli1.sctp  "Throughput of Association 1"  ETV
vector 228  multi.cli1.sctp  "Fast Recovery State 1:10.1.3.1"  ETV
vector 8  multi.cli1.ppp[0].queue  rcvdPk:vector(packetBytes)  ETV
attr interpolationmode  none
attr title  "received packets, vector(packetBytes)"
vector 10  multi.cli1.ppp[0].queue  queueingTime:vector  ETV
attr interpolationmode  none
attr title  "queueing time, vector"
vector 17  multi.cli1.ppp[0].ppp  rcvdPkFromHL:vector(packetBytes)  ETV
attr interpolationmode  none
attr source  packetReceivedFromUpper
attr title  "packets received from higher layer, vector(packetBytes)"
vector 13  multi.cli1.ppp[0].ppp  txPk:vector(packetBytes)  ETV
attr interpolationmode  none
attr source  packetSentToLower
attr title  "packets transmitted, vector(packetBytes)"
vector 68  multi.router1.ppp[0].ppp  rxPkOk:vector(packetBytes)  ETV
attr interpolationmode  none
attr source  rxPkOk
attr title  "packets received OK, vector(packetBytes)"
vector 72  multi.router1.ppp[0].ppp  passedUpPk:vector(packetBytes)  ETV
attr interpolationmode  none
attr source  packetSentToUpper
attr title  "packets passed to higher layer, vector(packetBytes)"
vector 73  multi.router1.ppp[1].queue  rcvdPk:vector(packetBytes)  ETV
attr interpolationmode  none
attr title  "received packets, vector(packetBytes)"
vector 75  multi.router1.ppp[1].queue  queueingTime:vector  ETV
attr interpolationmode  none
attr title  "queueing time, vector"
vector 82  multi.router1.ppp[1].ppp  rcvdPkFromHL:vector(packetBytes)  ETV
attr interpolationmode  none
attr source  packetReceivedFromUpper
attr title  "packets received from higher layer, vector(packetBytes)"
vector 78  multi.router1.ppp[1].ppp  txPk:vector(packetBytes)  ETV
attr interpolationmode  none
attr source  packetSentToLower
attr title  "packets transmitted, vector(packetBytes)"
vector 95  multi.router2.ppp[0].ppp  rxPkOk:vector(packetBytes)  ETV
attr interpolationmode  none
attr source  rxPkOk
attr title  "packets received OK, vector(packetBytes)"
vector 99  multi.router2.ppp[0].ppp  passedUpPk:vector(packetBytes)  ETV
attr interpolationmode  none
attr source  packetSentToUpper
attr title  "packets passed to higher layer, vector(packetBytes)"
vector 100  multi.router2.ppp[1].queue  rcvdPk:vector(packetBytes)  ETV
attr interpolationmode  none
attr title  "received packets, vector(packetBytes)"
vector 102  multi.router2.ppp[1].queue  queueingTime:vector  ETV
attr interpolationmode  none
attr title  "queueing time, vector"
vector 109  multi.router2.ppp[1].ppp  rcvdPkFromHL:vector(packetBytes)  ETV
attr interpolationmode  none
attr source  packetReceivedFromUpper
attr title  "packets received from higher layer, vector(packetBytes)"
vector 105  multi.router2.ppp[1].ppp  txPk:vector(packetBytes)  ETV
attr interpolationmode  none
attr source  packetSentToLower
attr title  "packets transmitted, vector(packetBytes)"
vector 41  multi.srv1.ppp[0].ppp  rxPkOk:vector(packetBytes)  ETV
attr interpolationmode  none
attr source  rxPkOk
attr title  "packets received OK, vector(packetBytes)"
vector 45  multi.srv1.ppp[0].ppp  passedUpPk:vector(packetBytes)  ETV
attr interpolationmode  none
attr source  packetSentToUpper
attr title  "packets passed to higher layer, vector(packetBytes)"
vector 257  multi.srv1.sctp  "Throughput of Association 2"  ETV
vector 183  multi.srv1.sctp  "Peer Rwnd 2"  ETV
vector 277  multi.srv1.sctp  "Fast Recovery State 3:10.1.1.1"  ETV
vector 304  multi.srv1.sctp  "Fast Recovery State 3:10.2.1.1"  ETV
vector 35  multi.srv1.ppp[0].queue  rcvdPk:vector(packetBytes)  ETV
attr interpolationmode  none
attr title  "received packets, vector(packetBytes)"
vector 37  multi.srv1.ppp[0].queue  queueingTime:vector  ETV
attr interpolationmode  none
attr title  "queueing time, vector"
vector 44  multi.srv1.ppp[0].ppp  rcvdPkFromHL:vector(packetBytes)  ETV
attr interpolationmode  none
attr source  packetReceivedFromUpper
attr title  "packets received from higher layer, vector(packetBytes)"
vector 40  multi.srv1.ppp[0].ppp  txPk:vector(packetBytes)  ETV
attr interpolationmode  none
attr source  packetSentToLower
attr title  "packets transmitted, vector(packetBytes)"
vector 106  multi.router2.ppp[1].ppp  rxPkOk:vector(packetBytes)  ETV
attr interpolationmode  none
attr source  rxPkOk
attr title  "packets received OK, vector(packetBytes)"
vector 110  multi.router2.ppp[1].ppp  passedUpPk:vector(packetBytes)  ETV
attr interpolationmode  none
attr source  packetSentToUpper
attr title  "packets passed to higher layer, vector(packetBytes)"
vector 89  multi.router2.ppp[0].queue  rcvdPk:vector(packetBytes)  ETV
attr interpolationmode  none
attr title  "received packets, vector(packetBytes)"
vector 91  multi.router2.ppp[0].queue  queueingTime:vector  ETV
attr interpolationmode  none
attr title  "queueing time, vector"
vector 98  multi.router2.ppp[0].ppp  rcvdPkFromHL:vector(packetBytes)  ETV
attr interpolationmode  none
attr source  packetReceivedFromUpper
attr title  "packets received from higher layer, vector(packetBytes)"
vector 94  multi.router2.ppp[0].ppp  txPk:vector(packetBytes)  ETV
attr interpolationmode  none
attr source  packetSentToLower
attr title  "packets transmitted, vector(packetBytes)"
vector 79  multi.router1.ppp[1].ppp  rxPkOk:vector(packetBytes)  ETV
attr interpolationmode  none
attr source  rxPkOk
attr title  "packets received OK, vector(packetBytes)"
vector 83  multi.router1.ppp[1].ppp  passedUpPk:vector(packetBytes)  ETV
attr interpolationmode  none
attr source  packetSentToUpper
attr title  "packets passed to higher layer, vector(packetBytes)"
vector 62  multi.router1.ppp[0].queue  rcvdPk:vector(packetBytes)  ETV
attr interpolationmode  none
attr title  "received packets, vector(packetBytes)"
vector 64  multi.router1.ppp[0].queue  queueingTime:vector  ETV
attr interpolationmode  none
attr title  "queueing time, vector"
vector 71  multi.router1.ppp[0].ppp  rcvdPkFromHL:vector(packetBytes)  ETV
attr interpolationmode  none
attr source  packetReceivedFromUpper
attr title  "packets received from higher layer, vector(packetBytes)"
vector 67  multi.router1.ppp[0].ppp  txPk:vector(packetBytes)  ETV
attr interpolationmode  none
attr source  packetSentToLower
attr title  "packets transmitted, vector(packetBytes)"
vector 14  multi.cli1.ppp[0].ppp  rxPkOk:vector(packetBytes)  ETV
attr interpolationmode  none
attr source  rxPkOk
attr title  "packets received OK, vector(packetBytes)"
vector 18  multi.cli1.ppp[0].ppp  passedUpPk:vector(packetBytes)  ETV
attr interpolationmode  none
attr source  packetSentToUpper
attr title  "packets passed to higher layer, vector(packetBytes)"
vector 205  multi.cli1.sctp  "Peer Rwnd 1"  ETV
vector 331  multi.cli1.sctp  "Fast Recovery State 1:10.2.3.1"  ETV
vector 69  multi.router1.ppp[0].ppp  droppedPkBitError:vector(packetBytes)  ETV
attr interpolationmode  none
attr source  dropPkBitError
attr title  "packets dropped/bit error, vector(packetBytes)"
vector 260  multi.srv1.sctp  "Slow Start Threshold 3:10.1.1.1"  ETV
vector 261  multi.srv1.sctp  "Congestion Window 3:10.1.1.1"  ETV
vector 262  multi.srv1.sctp  "Bandwidth 3:10.1.1.1"  ETV
vector 258  multi.srv1.sctp  "RTO 3:10.1.1.1"  ETV
vector 287  multi.srv1.sctp  "Slow Start Threshold 3:10.2.1.1"  ETV
vector 288  multi.srv1.sctp  "Congestion Window 3:10.2.1.1"  ETV
vector 289  multi.srv1.sctp  "Bandwidth 3:10.2.1.1"  ETV
vector 292  multi.srv1.sctp  "HB Sent 3:10.2.1.1"  ETV
vector 285  multi.srv1.sctp  "RTO 3:10.2.1.1"  ETV
vector 46  multi.srv1.ppp[1].queue  rcvdPk:vector(packetBytes)  ETV
attr interpolationmode  none
attr title  "received packets, vector(packetBytes)"
vector 48  multi.srv1.ppp[1].queue  queueingTime:vector  ETV
attr interpolationmode  none
attr title  "queueing time, vector"
vector 55  multi.srv1.ppp[1].ppp  rcvdPkFromHL:vector(packetBytes)  ETV
attr interpolationmode  none
attr source  packetReceivedFromUpper
attr title  "packets received from higher layer, vector(packetBytes)"
vector 51  multi.srv1.ppp[1].ppp  txPk:vector(packetBytes)  ETV
attr interpolationmode  none
attr source  packetSentToLower
attr title  "packets transmitted, vector(packetBytes)"
vector 160  multi.router4.ppp[1].ppp  rxPkOk:vector(packetBytes)  ETV
attr interpolationmode  none
attr source  rxPkOk
attr title  "packets received OK, vector(packetBytes)"
vector 164  multi.router4.ppp[1].ppp  passedUpPk:vector(packetBytes)  ETV
attr interpolationmode  none
attr source  packetSentToUpper
attr title  "packets passed to higher layer, vector(packetBytes)"
vector 143  multi.router4.ppp[0].queue  rcvdPk:vector(packetBytes)  ETV
attr interpolationmode  none
attr title  "received packets, vector(packetBytes)"
vector 145  multi.router4.ppp[0].queue  queueingTime:vector  ETV
attr interpolationmode  none
attr title  "queueing time, vector"
vector 152  multi.router4.ppp[0].ppp  rcvdPkFromHL:vector(packetBytes)  ETV
attr interpolationmode  none
attr source  packetReceivedFromUpper
attr title  "packets received from higher layer, vector(packetBytes)"
vector 148  multi.router4.ppp[0].ppp  txPk:vector(packetBytes)  ETV
attr interpolationmode  none
attr source  packetSentToLower
attr title  "packets transmitted, vector(packetBytes)"
vector 133  multi.router3.ppp[1].ppp  rxPkOk:vector(packetBytes)  ETV
attr interpolationmode  none
attr source  rxPkOk
attr title  "packets received OK, vector(packetBytes)"
vector 137  multi.router3.ppp[1].ppp  passedUpPk:vector(packetBytes)  ETV
attr interpolationmode  none
attr source  packetSentToUpper
attr title  "packets passed to higher layer, vector(packetBytes)"
vector 116  multi.router3.ppp[0].queue  rcvdPk:vector(packetBytes)  ETV
attr interpolationmode  none
attr title  "received packets, vector(packetBytes)"
vector 118  multi.router3.ppp[0].queue  queueingTime:vector  ETV
attr interpolationmode  none
attr title  "queueing time, vector"
vector 125  multi.router3.ppp[0].ppp  rcvdPkFromHL:vector(packetBytes)  ETV
attr interpolationmode  none
attr source  packetReceivedFromUpper
attr title  "packets received from higher layer, vector(packetBytes)"
vector 121  multi.router3.ppp[0].ppp  txPk:vector(packetBytes)  ETV
attr interpolationmode  none
attr source  packetSentToLower
attr title  "packets transmitted, vector(packetBytes)"
vector 211  multi.cli1.sctp  "Slow Start Threshold 1:10.1.3.1"  ETV
vector 212  multi.cli1.sctp  "Congestion Window 1:10.1.3.1"  ETV
vector 213  multi.cli1.sctp  "Bandwidth 1:10.1.3.1"  ETV
vector 209  multi.cli1.sctp  "RTO 1:10.1.3.1"  ETV
vector 314  multi.cli1.sctp  "Slow Start Threshold 1:10.2.3.1"  ETV
vector 315  multi.cli1.sctp  "Congestion Window 1:10.2.3.1"  ETV
vector 316  multi.cli1.sctp  "Bandwidth 1:10.2.3.1"  ETV
vector 319  multi.cli1.sctp  "HB Sent 1:10.2.3.1"  ETV
vector 312  multi.cli1.sctp  "RTO 1:10.2.3.1"  ETV
vector 1  multi.cli1.sctpApp[0]  sentPk:vector(packetBytes)  ETV
attr interpolationmode  none
attr source  sentPk
attr title  "packets sent, vector(packetBytes)"
vector 19  multi.cli1.ppp[1].queue  rcvdPk:vector(packetBytes)  ETV
attr interpolationmode  none
attr title  "received packets, vector(packetBytes)"
vector 21  multi.cli1.ppp[1].queue  queueingTime:vector  ETV
attr interpolationmode  none
attr title  "queueing time, vector"
vector 348  multi.cli1.sctp  "SendQueue of Association 1"  ETV
vector 214  multi.cli1.sctp  "TSN Sent 1:10.1.3.1"  ETV
vector 221  multi.cli1.sctp  "Outstanding Bytes 1:10.1.3.1"  ETV
vector 193  multi.cli1.sctp  "Outstanding Bytes 1:Total"  ETV
vector 220  multi.cli1.sctp  "Queued Sent Bytes 1:10.1.3.1"  ETV
vector 192  multi.cli1.sctp  "Queued Sent Bytes 1:Total"  ETV
vector 28  multi.cli1.ppp[1].ppp  rcvdPkFromHL:vector(packetBytes)  ETV
attr interpolationmode  none
attr source  packetReceivedFromUpper
attr title  "packets received from higher layer, vector(packetBytes)"
vector 24  multi.cli1.ppp[1].ppp  txPk:vector(packetBytes)  ETV
attr interpolationmode  none
attr source  packetSentToLower
attr title  "packets transmitted, vector(packetBytes)"
vector 25  multi.cli1.ppp[1].ppp  rxPkOk:vector(packetBytes)  ETV
attr interpolationmode  none
attr source  rxPkOk
attr title  "packets received OK, vector(packetBytes)"
vector 29  multi.cli1.ppp[1].ppp  passedUpPk:vector(packetBytes)  ETV
attr interpolationmode  none
attr source  packetSentToUpper
attr title  "packets passed to higher layer, vector(packetBytes)"
vector 320  multi.cli1.sctp  "HB ACK Sent 1:10.2.3.1"  ETV
vector 321  multi.cli1.sctp  "HB Received 1:10.2.3.1"  ETV
vector 122  multi.router3.ppp[0].ppp  rxPkOk:vector(packetBytes)  ETV
attr interpolationmode  none
attr source  rxPkOk
attr title  "packets received OK, vector(packetBytes)"
vector 126  multi.router3.ppp[0].ppp  passedUpPk:vector(packetBytes)  ETV
attr interpolationmode  none
attr source  packetSentToUpper
attr title  "packets passed to higher layer, vector(packetBytes)"
vector 127  multi.router3.ppp[1].queue  rcvdPk:vector(packetBytes)  ETV
attr interpolationmode  none
attr title  "received packets, vector(packetBytes)"
vector 129  multi.router3.ppp[1].queue  queueingTime:vector  ETV
attr interpolationmode  none
attr title  "queueing time, vector"
vector 136  multi.router3.ppp[1].ppp  rcvdPkFromHL:vector(packetBytes)  ETV
attr interpolationmode  none
attr source  packetReceivedFromUpper
attr title  "packets received from higher layer, vector(packetBytes)"
vector 132  multi.router3.ppp[1].ppp  txPk:vector(packetBytes)  ETV
attr interpolationmode  none
attr source  packetSentToLower
attr title  "packets transmitted, vector(packetBytes)"
vector 150  multi.router4.ppp[0].ppp  droppedPkBitError:vector(packetBytes)  ETV
attr interpolationmode  none
attr source  dropPkBitError
attr title  "packets dropped/bit error, vector(packetBytes)"
vector 149  multi.router4.ppp[0].ppp  rxPkOk:vector(packetBytes)  ETV
attr interpolationmode  none
attr source  rxPkOk
attr title  "packets received OK, vector(packetBytes)"
vector 153  multi.router4.ppp[0].ppp  passedUpPk:vector(packetBytes)  ETV
attr interpolationmode  none
attr source  packetSentToUpper
attr title  "packets passed to higher layer, vector(packetBytes)"
vector 154  multi.router4.ppp[1].queue  rcvdPk:vector(packetBytes)  ETV
attr interpolationmode  none
attr title  "received packets, vector(packetBytes)"
vector 156  multi.router4.ppp[1].queue  queueingTime:vector  ETV
attr interpolationmode  none
attr title  "queueing time, vector"
vector 163  multi.router4.ppp[1].ppp  rcvdPkFromHL:vector(packetBytes)  ETV
attr interpolationmode  none
attr source  packetReceivedFromUpper
attr title  "packets received from higher layer, vector(packetBytes)"
vector 159  multi.router4.ppp[1].ppp  txPk:vector(packetBytes)  ETV
attr interpolationmode  none
attr source  packetSentToLower
attr title  "packets transmitted, vector(packetBytes)"
vector 53  multi.srv1.ppp[1].ppp  droppedPkBitError:vector(packetBytes)  ETV
attr interpolationmode  none
attr source  dropPkBitError
attr title  "packets dropped/bit error, vector(packetBytes)"
vector 96  multi.router2.ppp[0].ppp  droppedPkBitError:vector(packetBytes)  ETV
attr interpolationmode  none
attr source  dropPkBitError
attr title  "packets dropped/bit error, vector(packetBytes)"
vector 264  multi.srv1.sctp  "TSN Received 3:10.1.1.1"  ETV
vector 339  multi.srv1.sctp  "Stream 0 Throughput"  ETV
vector 169  multi.srv1.sctp  "Queued Received Bytes 2:Total"  ETV
vector 165  multi.srv1.sctp  "Advertised Receiver Window 2"  ETV
vector 174  multi.srv1.sctp  "Number of Total Gap Blocks Stored 2"  ETV
vector 175  multi.srv1.sctp  "Number of Revokable Gap Blocks Stored 2"  ETV
vector 176  multi.srv1.sctp  "Number of Non-Revokable Gap Blocks Stored 2"  ETV
vector 177  multi.srv1.sctp  "Number of Duplicate TSNs Stored 2"  ETV
vector 181  multi.srv1.sctp  "Length of SACK Sent 2"  ETV
vector 178  multi.srv1.sctp  "Number of Revokable Gap Blocks Sent 2"  ETV
vector 179  multi.srv1.sctp  "Number of Non-Revokable Gap Blocks Sent 2"  ETV
vector 180  multi.srv1.sctp  "Number of Duplicate TSNs Sent 2"  ETV
vector 347  multi.cli1.sctp  "Number of Gap Blocks in Last SACK of Association 1"  ETV
vector 194  multi.cli1.sctp  "Number of Revokable Gap Blocks in SACK 1"  ETV
vector 195  multi.cli1.sctp  "Number of Non-Revokable Gap Blocks in SACK 1"  ETV
vector 231  multi.cli1.sctp  "TSN Acked CumAck 1:10.1.3.1"  ETV
vector 232  multi.cli1.sctp  "TSN Acked GapAck 1:10.1.3.1"  ETV
vector 210  multi.cli1.sctp  "RTT 1:10.1.3.1"  ETV
vector 224  multi.cli1.sctp  "Number of Gap Acked Chunks in Last SACK 1:10.1.3.1"  ETV
vector 225  multi.cli1.sctp  "Number of Non-Revokable Gap Acked Chunks in Last SACK 1:10.1.3.1"  ETV
vector 226  multi.cli1.sctp  "Number of Gap Missed Chunks in Last SACK 1:10.1.3.1"  ETV
vector 327  multi.cli1.sctp  "Number of Gap Acked Chunks in Last SACK 1:10.2.3.1"  ETV
vector 328  multi.cli1.sctp  "Number of Non-Revokable Gap Acked Chunks in Last SACK 1:10.2.3.1"  ETV
vector 329  multi.cli1.sctp  "Number of Gap Missed Chunks in Last SACK 1:10.2.3.1"  ETV
vector 204  multi.cli1.sctp  "Arwnd in Last SACK 1"  ETV
vector 227  multi.cli1.sctp  "Partial Bytes Acked 1:10.1.3.1"  ETV
vector 229  multi.cli1.sctp  "TSN Sent Fast RTX 1:10.1.3.1"  ETV
vector 185  multi.srv1.sctp  "End to End Delay of Association 2"  ETV
vector 343  multi.srv1.sctpApp[0]  "App: Received Bytes of assoc 3"  ETV
vector 233  multi.cli1.sctp  "TSN PseudoCumAck 1:10.1.3.1"  ETV
vector 234  multi.cli1.sctp  "TSN RTXPseudoCumAck 1:10.1.3.1"  ETV
vector 42  multi.srv1.ppp[0].ppp  droppedPkBitError:vector(packetBytes)  ETV
attr interpolationmode  none
attr source  dropPkBitError
attr title  "packets dropped/bit error, vector(packetBytes)"
vector 15  multi.cli1.ppp[0].ppp  droppedPkBitError:vector(packetBytes)  ETV
attr interpolationmode  none
attr source  dropPkBitError
attr title  "packets dropped/bit error, vector(packetBytes)"
vector 107  multi.router2.ppp[1].ppp  droppedPkBitError:vector(packetBytes)  ETV
attr interpolationmode  none
attr source  dropPkBitError
attr title  "packets dropped/bit error, vector(packetBytes)"
vector 80  multi.router1.ppp[1].ppp  droppedPkBitError:vector(packetBytes)  ETV
attr interpolationmode  none
attr source  dropPkBitError
attr title  "packets dropped/bit error, vector(packetBytes)"
vector 230  multi.cli1.sctp  "TSN Sent Timer-Based RTX 1:10.1.3.1"  ETV
vector 265  multi.srv1.sctp  "HB Sent 3:10.1.1.1"  ETV
vector 217  multi.cli1.sctp  "HB ACK Sent 1:10.1.3.1"  ETV
vector 218  multi.cli1.sctp  "HB Received 1:10.1.3.1"  ETV
vector 52  multi.srv1.ppp[1].ppp  rxPkOk:vector(packetBytes)  ETV
attr interpolationmode  none
attr source  rxPkOk
attr title  "packets received OK, vector(packetBytes)"
vector 56  multi.srv1.ppp[1].ppp  passedUpPk:vector(packetBytes)  ETV
attr interpolationmode  none
attr source  packetSentToUpper
attr title  "packets passed to higher layer, vector(packetBytes)"
vector 293  multi.srv1.sctp  "HB ACK Sent 3:10.2.1.1"  ETV
vector 294  multi.srv1.sctp  "HB Received 3:10.2.1.1"  ETV
vector 322  multi.cli1.sctp  "HB ACK Received 1:10.2.3.1"  ETV
vector 313  multi.cli1.sctp  "RTT 1:10.2.3.1"  ETV
vector 323  multi.cli1.sctp  "Queued Sent Bytes 1:10.2.3.1"  ETV
vector 324  multi.cli1.sctp  "Outstanding Bytes 1:10.2.3.1"  ETV
vector 333  multi.cli1.sctp  "TSN Sent Timer-Based RTX 1:10.2.3.1"  ETV
vector 291  multi.srv1.sctp  "TSN Received 3:10.2.1.1"  ETV
vector 334  multi.cli1.sctp  "TSN Acked CumAck 1:10.2.3.1"  ETV
vector 335  multi.cli1.sctp  "TSN Acked GapAck 1:10.2.3.1"  ETV
vector 336  multi.cli1.sctp  "TSN PseudoCumAck 1:10.2.3.1"  ETV
vector 337  multi.cli1.sctp  "TSN RTXPseudoCumAck 1:10.2.3.1"  ETV
vector 330  multi.cli1.sctp  "Partial Bytes Acked 1:10.2.3.1"  ETV
vector 26  multi.cli1.ppp[1].ppp  droppedPkBitError:vector(packetBytes)  ETV
attr interpolationmode  none
attr source  dropPkBitError
attr title  "packets dropped/bit error, vector(packetBytes)"
vector 123  multi.router3.ppp[0].ppp  droppedPkBitError:vector(packetBytes)  ETV
attr interpolationmode  none
attr source  dropPkBitError
attr title  "packets dropped/bit error, vector(packetBytes)"
vector 161  multi.router4.ppp[1].ppp  droppedPkBitError:vector(packetBytes)  ETV
attr interpolationmode  none
attr source  dropPkBitError
attr title  "packets dropped/bit error, vector(packetBytes)"
vector 134  multi.router3.ppp[1].ppp  droppedPkBitError:vector(packetBytes)  ETV
attr interpolationmode  none
attr source  dropPkBitError
attr title  "packets dropped/bit error, vector(packetBytes)"
vector 268  multi.srv1.sctp  "HB ACK Received 3:10.1.1.1"  ETV
vector 259  multi.srv1.sctp  "RTT 3:10.1.1.1"  ETV
211	109	4.039552	65535
211	483	4.920544	17880
211	586	5.303904	17880
211	861	6.762592	17880
211	1142	8.316992	17880
211	1228	8.87216	17880
211	1295	9.488992	17880
211	1369	11.641527158206	17880
211	1435	12.196695158206	17880
211	1498	15.946597474618	17880
211	1549	16.502917474618	17880
211	1631	17.056933474618	17880
211	1686	17.394117474618	17880
211	1755	17.610949474618	17880
211	2156	18.983557474618	17880
211	2496	21.190298866458	17880
211	2580	23.190298866458	17880
211	2648	23.607514866458	17880
211	2723	24.224346866458	17880
211	2842	24.916314866458	17880
211	3123	26.918671939678	17880
211	3221	27.336271939678	17880
211	3291	27.753487939678	17880
211	3352	28.170703939678	17880
211	3495	28.307887939678	17880
211	3579	28.664815055377	17880
211	3872	29.548975939678	17880
211	3977	30.234895939678	17880
211	4101	31.481604838979	17880
211	4179	31.899204838979	17880
211	4272	32.316036838979	17880
211	4424	33.144804838979	17880
211	4590	34.699204838979	17880
211	4649	36.699204838979	17880
211	4790	37.117188838979	17880
211	4885	40.699204838979	17880
211	5083	42.873124838979	17880
211	5138	43.290340838979	17880
211	5734	46.161439006508	17880
211	5913	49.568052209019	17880
211	6058	54.643730949099	17880
211	6119	59.062322949099	17880
211	6266	63.397746949099	17880
211	6408	64.232178949099	17880
211	6563	64.986194949099	17880
211	6685	65.335314949099	17880
211	7243	67.255890949099	17880
211	7349	67.810290949099	17880
211	7782	69.662162949099	17880
211	7922	70.766066949099	17880
211	7958	71.977724339623	17880
211	7959	71.977724339623	17880
211	8206	73.504892339623	17880
211	8248	73.642076339623	17880
211	8289	73.779260339623	17880
211	8499	74.608412339623	17880
211	8678	75.799895361152	17880
211	8679	75.799895361152	17880
211	8809	79.01729340421	17880
211	8897	83.783225490326	17880
211	8898	83.783225490326	17880
211	9113	88.396316339623	17880
211	9150	88.532124339623	17880
211	9260	88.997660339623	17880
211	9438	89.827196339623	17880
211	9551	91.06481018218	17880
211	9633	91.75716218218	17880
212	109	4.039552	8940
212	483	4.920544	17880
212	586	5.303904	19280
212	861	6.762592	17880
212	1142	8.316992	4470
212	1228	8.87216	8940
212	1295	9.488992	13140
212	1369	11.641527158206	4470
212	1435	12.196695158206	8940
212	1498	15.946597474618	4470
212	1549	16.502917474618	8940
212	1631	17.056933474618	13410
212	1686	17.394117474618	17610
212	1755	17.610949474618	22080
212	2156	18.983557474618	17880
212	2496	21.190298866458	4470
212	2580	23.190298866458	4470
212	2648	23.607514866458	8940
212	2723	24.224346866458	13140
212	2842	24.916314866458	17880
212	3123	26.918671939678	4470
212	3221	27.336271939678	8670
212	3291	27.753487939678	13140
212	3352	28.170703939678	17340
212	3495	28.307887939678	21540
212	3579	28.664815055377	4470
212	3872	29.548975939678	8940
212	3977	30.234895939678	13140
212	4101	31.481604838979	4470
212	4179	31.899204838979	8670
212	4272	32.316036838979	13140
212	4424	33.144804838979	17880
212	4590	34.699204838979	4470
212	4649	36.699204838979	4470
212	4790	37.117188838979	8940
212	4885	40.699204838979	4470
212	5083	42.873124838979	8940
212	5138	43.290340838979	17880
212	5734	46.161439006508	4470
212	5913	49.568052209019	4470
212	6058	54.643730949099	4470
212	6119	59.062322949099	8940
212	6266	63.397746949099	13140
212	6408	64.232178949099	17880
212	6563	64.986194949099	22080
212	6685	65.335314949099	17880
212	7243	67.255890949099	22350
212	7349	67.810290949099	17880
212	7782	69.662162949099	22350
212	7922	70.766066949099	17880
212	7958	71.977724339623	4470
212	7959	71.977724339623	8940
212	8206	73.504892339623	13140
212	8248	73.642076339623	17340
212	8289	73.779260339623	21540
212	8499	74.608412339623	17880
212	8678	75.799895361152	4470
212	8679	75.799895361152	8940
212	8809	79.01729340421	4470
212	8897	83.783225490326	4470
212	8898	83.783225490326	8940
212	9113	88.396316339623	13140
212	9150	88.532124339623	17340
212	9260	88.997660339623	21810
212	9438	89.827196339623	17880
212	9551	91.06481018218	4470
212	9633	91.75716218218	8940
213	109	4.039552	0.3725
213	483	4.920544	4.8194070080863
213	586	5.303904	5.2634452634453
213	861	6.762592	4.6843070474194
213	1142	8.316992	1.0905098804586
213	1228	8.87216	2.1810197609173
213	1295	9.488992	3.2056599170529
213	1369	11.641527158206	1.0905098804586
213	1435	12.196695158206	2.1810197609173
213	1498	15.946597474618	1.0905098804586
213	1549	16.502917474618	2.1810197609173
213	1631	17.056933474618	3.2391304347826
213	1686	17.394117474618	4.2536231884058
213	1755	17.610949474618	5.286090495571
213	2156	18.983557474618	3.9715681919147
213	2496	21.190298866458	0.99598930481283
213	2580	23.190298866458	0.865105477066
213	2648	23.607514866458	1.730210954132
213	2723	24.224346866458	2.5430617379524
213	2842	24.916314866458	3.429886821408
213	3123	26.918671939678	0.88637715645449
213	3221	27.336271939678	1.7950310559006
213	3291	27.753487939678	2.7204968944099
213	3352	28.170703939678	3.733850129199
213	3495	28.307887939678	4.6382428940568
213	3579	28.664815055377	0.9625322997416
213	3872	29.548975939678	1.9250645994832
213	3977	30.234895939678	2.7668982943778
213	4101	31.481604838979	0.97747649245572
213	4179	31.899204838979	1.8959107806691
213	4272	32.316036838979	2.9741964689905
213	4424	33.144804838979	4.0452488687783
213	4590	34.699204838979	1.010854816825
213	4649	36.699204838979	1.010854816825
213	4790	37.117188838979	2.0217096336499
213	4885	40.699204838979	1.010854816825
213	5083	42.873124838979	1.6290087463557
213	5138	43.290340838979	3.2580174927114
213	5734	46.161439006508	0.84180790960452
213	5913	49.568052209019	0.84180790960452
213	6058	54.643730949099	0.84180790960452
213	6119	59.062322949099	1.683615819209
213	6266	63.397746949099	2.4745762711864
213	6408	64.232178949099	3.531503061426
213	6563	64.986194949099	4.3610507604187
213	6685	65.335314949099	3.3998859098688
213	7243	67.255890949099	4.2857142857143
213	7349	67.810290949099	3.4285714285714
213	7782	69.662162949099	4.3272023233301
213	7922	70.766066949099	3.4312032239493
213	7958	71.977724339623	0.85780080598733
213	7959	71.977724339623	1.7156016119747
213	8206	73.504892339623	2.6401446654611
213	8248	73.642076339623	3.4840265220012
213	8289	73.779260339623	4.3279083785413
213	8499	74.608412339623	3.5426986328512
213	8678	75.799895361152	0.8856746582128
213	8679	75.799895361152	1.7713493164256
213	8809	79.01729340421	0.8856746582128
213	8897	83.783225490326	0.8856746582128
213	8898	83.783225490326	1.7713493164256
213	9113	88.396316339623	2.6035268476323
213	9150	88.532124339623	3.4357043788389
213	9260	88.997660339623	4.3213790370517
213	9438	89.827196339623	3.6988001654944
213	9551	91.06481018218	0.9247000413736
213	9633	91.75716218218	1.8494000827472
209	109	4.039552	3
209	403	4.503328	1.391328
209	530	5.057728	1.20018
209	650	5.52112	1.1750715
209	796	6.344992	1.0125170625
209	967	7.316992	1
209	1091	7.871392	1.076267579103
209	1142	8.316992	2.152535158206
209	1369	11.641527158206	4.305070316412
209	1498	15.946597474618	8.610140632824
209	1631	17.056933474618	1
209	1755	17.610949474618	1
209	1996	18.159685474618	1
209	2156	18.983557474618	1.09755739184
209	2452	20.504677474618	1
209	2496	21.190298866458	2
209	2546	21.745082866458	1.636673009312
209	2580	23.190298866458	3.273346018624
209	2755	24.299098866458	1.440335409023
209	2899	25.196730866458	1.44795707322
209	3069	26.157018866458	1.313465772883
209	3123	26.918671939678	2.626931545766
209	3155	26.992986866458	1.328543115699
209	3352	28.170703939678	1.310654649554
209	3579	28.664815055377	2.621309299108
209	3977	30.234895939678	1.246708899301
209	4074	31.069711939678	1.237524023326
209	4101	31.481604838979	2.475048046652
209	4272	32.316036838979	1.206545822738
209	4348	32.870436838979	1.045332124597
209	4548	33.699204838979	1
209	4590	34.699204838979	2
209	4649	36.699204838979	4
209	4885	40.699204838979	8
209	5083	42.873124838979	2.030105053468
209	5236	43.844740838979	1.809229297765
209	5477	44.536708838979	1.624730167529
209	5573	45.228676838979	1.423707604592
209	5728	46.057828838979	1.26891968502
209	5734	46.161439006508	2.53783937004
209	5913	49.568052209019	5.07567874008
209	6058	54.643730949099	10.15135748016
209	6328	63.814962949099	1.333424409493
209	6605	65.060946949099	1.378561339887
209	6808	65.884434949099	1.230729408587
209	7011	66.569970949099	1.18660860231
209	7243	67.255890949099	1.095465510794
209	7427	68.222226949099	1.074496441653
209	7643	68.913810949099	1.159397476224
209	7782	69.662162949099	1.330832605721
209	7880	70.354130949099	1.211657390524
209	7958	71.977724339623	2.423314781048
209	8206	73.504892339623	1.276534489633
209	8424	74.334044339623	1.191483021529
209	8678	75.799895361152	2.382966043058
209	8809	79.01729340421	4.765932086116
209	8897	83.783225490326	9.531864172232
209	9326	89.415644339623	1.237613842557
209	9551	91.06481018218	2.475227685114
210	403	4.503328	0.463776
210	530	5.057728	0.417216
210	650	5.52112	0.600576
210	796	6.344992	0.486688
210	967	7.316992	0.5544
210	1091	7.871392	0.691584
210	1631	17.056933474618	0.554016
210	1755	17.610949474618	0.554016
210	1996	18.159685474618	0.548736
210	2156	18.983557474618	0.823872
210	2452	20.504677474618	0.548736
210	2546	21.745082866458	1.24040539184
210	2755	24.299098866458	0.691584
210	2899	25.196730866458	0.4176
210	3069	26.157018866458	0.686304
210	3155	26.992986866458	0.417984
210	3352	28.170703939678	0.417216
210	3977	30.234895939678	0.68592
210	4074	31.069711939678	0.4176
210	4272	32.316036838979	0.416832
210	4348	32.870436838979	0.5544
210	4548	33.699204838979	0.5544
210	5083	42.873124838979	1.618368
210	5236	43.844740838979	0.5544
210	5477	44.536708838979	0.554784
210	5573	45.228676838979	0.691968
210	5728	46.057828838979	0.691968
210	6328	63.814962949099	0.417216
210	6605	65.060946949099	0.828768
210	6808	65.884434949099	0.686304
210	7011	66.569970949099	0.548736
210	7243	67.255890949099	0.68592
210	7427	68.222226949099	0.54912
210	7643	68.913810949099	0.4176
210	7782	69.662162949099	0.885536
210	7880	70.354130949099	0.691968
210	8206	73.504892339623	0.417216
210	8424	74.334044339623	0.691968
210	9326	89.415644339623	0.417984
214	113	4.039552	1000
214	117	4.039552	1001
214	117	4.039552	1002
214	117	4.039552	1003
214	120	4.039552	1004
214	120	4.039552	1005
214	120	4.039552	1006
214	403	4.503328	1007
214	403	4.503328	1008
214	403	4.503328	1009
214	437	4.640512	1010
214	437	4.640512	1011
214	437	4.640512	1012
214	483	4.920544	1013
214	483	4.920544	1014
214	483	4.920544	1015
214	483	4.920544	1016
214	483	4.920544	1017
214	483	4.920544	1018
214	483	4.920544	1019
214	483	4.920544	1020
214	483	4.920544	1021
214	530	5.057728	1022
214	530	5.057728	1023
214	530	5.057728	1024
214	586	5.303904	1025
214	586	5.303904	1026
214	586	5.303904	1027
214	650	5.52112	1028
214	650	5.52112	1029
214	650	5.52112	1030
214	650	5.52112	1031
214	650	5.52112	1032
214	650	5.52112	1033
214	702	5.858304	1034
214	702	5.858304	1035
214	702	5.858304	1036
214	742	5.933056	1037
214	742	5.933056	1038
214	742	5.933056	1039
214	796	6.344992	1040
214	796	6.344992	1041
214	796	6.344992	1042
214	861	6.762592	1043
214	861	6.762592	1044
214	861	6.762592	1045
214	861	6.762592	1046
214	861	6.762592	1047
214	861	6.762592	1048
214	928	7.179808	1049
214	928	7.179808	1050
214	928	7.179808	1051
214	967	7.316992	1052
214	967	7.316992	1053
214	967	7.316992	1054
214	1011	7.454176	1055
214	1011	7.454176	1056
214	1011	7.454176	1057
214	1091	7.871392	1058
214	1091	7.871392	1059
214	1091	7.871392	1060
214	1091	7.871392	1061
214	1091	7.871392	1062
214	1091	7.871392	1063
214	1295	9.488992	1064
214	1295	9.488992	1065
214	1295	9.488992	1066
214	1295	9.488992	1067
214	1295	9.488992	1068
214	1295	9.488992	1069
214	1435	12.196695158206	1070
214	1435	12.196695158206	1071
214	1435	12.196695158206	1072
214	1435	12.196695158206	1073
214	1435	12.196695158206	1074
214	1435	12.196695158206	1075
214	1549	16.502917474618	1076
214	1549	16.502917474618	1077
214	1549	16.502917474618	1078
214	1549	16.502917474618	1079
214	1549	16.502917474618	1080
214	1549	16.502917474618	1081
214	1631	17.056933474618	1082
214	1631	17.056933474618	1083
214	1631	17.056933474618	1084
214	1631	17.056933474618	1085
214	1631	17.056933474618	1086
214	1631	17.056933474618	1087
214	1631	17.056933474618	1088
214	1631	17.056933474618	1089
214	1631	17.056933474618	1090
214	1686	17.394117474618	1091
214	1686	17.394117474618	1092
214	1686	17.394117474618	1093
214	1686	17.394117474618	1094
214	1686	17.394117474618	1095
214	1686	17.394117474618	1096
214	1755	17.610949474618	1097
214	1755	17.610949474618	1098
214	1755	17.610949474618	1099
214	1755	17.610949474618	1100
214	1755	17.610949474618	1101
214	1755	17.610949474618	1102
214	1755	17.610949474618	1103
214	1755	17.610949474618	1104
214	1755	17.610949474618	1105
214	1927	17.885317474618	1106
214	1927	17.885317474618	1107
214	1927	17.885317474618	1108
214	1927	17.885317474618	1109
214	1927	17.885317474618	1110
214	1927	17.885317474618	1111
214	1996	18.159685474618	1112
214	1996	18.159685474618	1113
214	1996	18.159685474618	1114
214	1996	18.159685474618	1115
214	1996	18.159685474618	1116
214	1996	18.159685474618	1117
214	2051	18.434437474618	1118
214	2051	18.434437474618	1119
214	2051	18.434437474618	1120
214	2091	18.571621474618	1121
214	2091	18.571621474618	1122
214	2091	18.571621474618	1123
214	2195	19.120741474618	1124
214	2195	19.120741474618	1125
214	2195	19.120741474618	1126
214	2272	19.538341474618	1127
214	2272	19.538341474618	1128
214	2272	19.538341474618	1129
214	2272	19.538341474618	1130
214	2272	19.538341474618	1131
214	2272	19.538341474618	1132
214	2339	19.955941474618	1133
214	2339	19.955941474618	1134
214	2339	19.955941474618	1135
214	2385	20.092741474618	1136
214	2385	20.092741474618	1137
214	2385	20.092741474618	1138
214	2452	20.504677474618	1139
214	2452	20.504677474618	1140
214	2452	20.504677474618	1141
214	2452	20.504677474618	1142
214	2452	20.504677474618	1143
214	2452	20.504677474618	1144
214	2648	23.607514866458	1145
214	2648	23.607514866458	1146
214	2648	23.607514866458	1147
214	2648	23.607514866458	1148
214	2648	23.607514866458	1149
214	2648	23.607514866458	1150
214	2723	24.224346866458	1151
214	2723	24.224346866458	1152
214	2723	24.224346866458	1153
214	2723	24.224346866458	1154
214	2723	24.224346866458	1155
214	2723	24.224346866458	1156
214	2755	24.299098866458	1157
214	2755	24.299098866458	1158
214	2755	24.299098866458	1159
214	2808	24.779130866458	1160
214	2808	24.779130866458	1161
214	2808	24.779130866458	1162
214	2842	24.916314866458	1163
214	2842	24.916314866458	1164
214	2842	24.916314866458	1165
214	2842	24.916314866458	1166
214	2842	24.916314866458	1167
214	2842	24.916314866458	1168
214	2899	25.196730866458	1169
214	2899	25.196730866458	1170
214	2899	25.196730866458	1171
214	2978	25.470714866458	1172
214	2978	25.470714866458	1173
214	2978	25.470714866458	1174
214	2978	25.470714866458	1175
214	2978	25.470714866458	1176
214	2978	25.470714866458	1177
214	3014	25.607898866458	1178
214	3014	25.607898866458	1179
214	3014	25.607898866458	1180
214	3069	26.157018866458	1181
214	3069	26.157018866458	1182
214	3069	26.157018866458	1183
214	3109	26.575002866458	1184
214	3109	26.575002866458	1185
214	3109	26.575002866458	1186
214	3291	27.753487939678	1187
214	3291	27.753487939678	1188
214	3291	27.753487939678	1189
214	3291	27.753487939678	1190
214	3291	27.753487939678	1191
214	3291	27.753487939678	1192
214	3291	27.753487939678	1193
214	3291	27.753487939678	1194
214	3291	27.753487939678	1195
214	3352	28.170703939678	1196
214	3352	28.170703939678	1197
214	3352	28.170703939678	1198
214	3352	28.170703939678	1199
214	3352	28.170703939678	1200
214	3352	28.170703939678	1201
214	3495	28.307887939678	1202
214	3495	28.307887939678	1203
214	3495	28.307887939678	1204
214	3495	28.307887939678	1205
214	3495	28.307887939678	1206
214	3495	28.307887939678	1207
214	3574	28.587919939678	1208
214	3574	28.587919939678	1209
214	3574	28.587919939678	1210
214	3574	28.587919939678	1211
214	3574	28.587919939678	1212
214	3574	28.587919939678	1213
214	3872	29.548975939678	1214
214	3872	29.548975939678	1215
214	3872	29.548975939678	1216
214	3872	29.548975939678	1217
214	3872	29.548975939678	1218
214	3872	29.548975939678	1219
214	3872	29.548975939678	1220
214	3872	29.548975939678	1221
214	3872	29.548975939678	1222
214	3977	30.234895939678	1223
214	3977	30.234895939678	1224
214	3977	30.234895939678	1225
214	3977	30.234895939678	1226
214	3977	30.234895939678	1227
214	3977	30.234895939678	1228
214	4032	30.652111939678	1229
214	4032	30.652111939678	1230
214	4032	30.652111939678	1231
214	4074	31.069711939678	1232
214	4074	31.069711939678	1233
214	4074	31.069711939678	1234
214	4179	31.899204838979	1235
214	4179	31.899204838979	1236
214	4179	31.899204838979	1237
214	4272	32.316036838979	1238
214	4272	32.316036838979	1239
214	4272	32.316036838979	1240
214	4272	32.316036838979	1241
214	4272	32.316036838979	1242
214	4272	32.316036838979	1243
214	4272	32.316036838979	1244
214	4272	32.316036838979	1245
214	4272	32.316036838979	1246
214	4272	32.316036838979	1247
214	4272	32.316036838979	1248
214	4272	32.316036838979	1249
214	4348	32.870436838979	1250
214	4348	32.870436838979	1251
214	4348	32.870436838979	1252
214	4387	33.007620838979	1253
214	4387	33.007620838979	1254
214	4387	33.007620838979	1255
214	4424	33.144804838979	1256
214	4424	33.144804838979	1257
214	4424	33.144804838979	1258
214	4424	33.144804838979	1259
214	4424	33.144804838979	1260
214	4424	33.144804838979	1261
214	4465	33.287652838979	1262
214	4465	33.287652838979	1263
214	4465	33.287652838979	1264
214	4548	33.699204838979	1265
214	4548	33.699204838979	1266
214	4548	33.699204838979	1267
214	4548	33.699204838979	1268
214	4548	33.699204838979	1269
214	4548	33.699204838979	1270
214	4885	40.699204838979	1271
214	4885	40.699204838979	1272
214	4885	40.699204838979	1273
214	4885	40.699204838979	1274
214	4885	40.699204838979	1275
214	4885	40.699204838979	1276
214	4985	41.254756838979	1277
214	4985	41.254756838979	1278
214	4985	41.254756838979	1279
214	5083	42.873124838979	1280
214	5083	42.873124838979	1281
214	5083	42.873124838979	1282
214	5083	42.873124838979	1283
214	5083	42.873124838979	1284
214	5083	42.873124838979	1285
214	5138	43.290340838979	1286
214	5138	43.290340838979	1287
214	5138	43.290340838979	1288
214	5138	43.290340838979	1289
214	5138	43.290340838979	1290
214	5138	43.290340838979	1291
214	5138	43.290340838979	1292
214	5138	43.290340838979	1293
214	5138	43.290340838979	1294
214	5236	43.844740838979	1295
214	5236	43.844740838979	1296
214	5236	43.844740838979	1297
214	5236	43.844740838979	1298
214	5236	43.844740838979	1299
214	5236	43.844740838979	1300
214	5379	43.981924838979	1301
214	5379	43.981924838979	1302
214	5379	43.981924838979	1303
214	5477	44.536708838979	1304
214	5477	44.536708838979	1305
214	5477	44.536708838979	1306
214	5477	44.536708838979	1307
214	5477	44.536708838979	1308
214	5477	44.536708838979	1309
214	5477	44.536708838979	1310
214	5477	44.536708838979	1311
214	5477	44.536708838979	1312
214	5573	45.228676838979	1313
214	5573	45.228676838979	1314
214	5573	45.228676838979	1315
214	5573	45.228676838979	1316
214	5573	45.228676838979	1317
214	5573	45.228676838979	1318
214	5610	45.365860838979	1319
214	5610	45.365860838979	1320
214	5610	45.365860838979	1321
214	5661	45.646276838979	1322
214	5661	45.646276838979	1323
214	5661	45.646276838979	1324
214	5728	46.057828838979	1325
214	5728	46.057828838979	1326
214	5728	46.057828838979	1327
214	5728	46.057828838979	1328
214	5728	46.057828838979	1329
214	5728	46.057828838979	1330
214	5880	47.030212838979	1331
214	5880	47.030212838979	1332
214	5880	47.030212838979	1333
214	5913	49.568052209019	1334
214	5913	49.568052209019	1335
214	5913	49.568052209019	1336
214	5913	49.568052209019	1337
214	5913	49.568052209019	1338
214	5913	49.568052209019	1339
214	6213	63.060946949099	1340
214	6213	63.060946949099	1341
214	6213	63.060946949099	1342
214	6213	63.060946949099	1343
214	6213	63.060946949099	1344
214	6213	63.060946949099	1345
214	6266	63.397746949099	1346
214	6266	63.397746949099	1347
214	6266	63.397746949099	1348
214	6266	63.397746949099	1349
214	6266	63.397746949099	1350
214	6266	63.397746949099	1351
214	6328	63.814962949099	1352
214	6328	63.814962949099	1353
214	6328	63.814962949099	1354
214	6362	63.952146949099	1355
214	6362	63.952146949099	1356
214	6362	63.952146949099	1357
214	6408	64.232178949099	1358
214	6408	64.232178949099	1359
214	6408	64.232178949099	1360
214	6408	64.232178949099	1361
214	6408	64.232178949099	1362
214	6408	64.232178949099	1363
214	6449	64.369362949099	1364
214	6449	64.369362949099	1365
214	6449	64.369362949099	1366
214	6501	64.649394949099	1367
214	6501	64.649394949099	1368
214	6501	64.649394949099	1369
214	6563	64.986194949099	1370
214	6563	64.986194949099	1371
214	6563	64.986194949099	1372
214	6563	64.986194949099	1373
214	6563	64.986194949099	1374
214	6563	64.986194949099	1375
214	6605	65.060946949099	1376
214	6605	65.060946949099	1377
214	6605	65.060946949099	1378
214	6645	65.198130949099	1379
214	6645	65.198130949099	1380
214	6645	65.198130949099	1381
214	6722	65.472498949099	1382
214	6722	65.472498949099	1383
214	6722	65.472498949099	1384
214	6757	65.609682949099	1385
214	6757	65.609682949099	1386
214	6757	65.609682949099	1387
214	6808	65.884434949099	1388
214	6808	65.884434949099	1389
214	6808	65.884434949099	1390
214	6866	66.021234949099	1391
214	6866	66.021234949099	1392
214	6866	66.021234949099	1393
214	6906	66.158418949099	1394
214	6906	66.158418949099	1395
214	6906	66.158418949099	1396
214	6946	66.295602949099	1397
214	6946	66.295602949099	1398
214	6946	66.295602949099	1399
214	7011	66.569970949099	1400
214	7011	66.569970949099	1401
214	7011	66.569970949099	1402
214	7011	66.569970949099	1403
214	7011	66.569970949099	1404
214	7011	66.569970949099	1405
214	7243	67.255890949099	1406
214	7243	67.255890949099	1407
214	7243	67.255890949099	1408
214	7243	67.255890949099	1409
214	7243	67.255890949099	1410
214	7243	67.255890949099	1411
214	7243	67.255890949099	1412
214	7243	67.255890949099	1413
214	7243	67.255890949099	1414
214	7243	67.255890949099	1415
214	7243	67.255890949099	1416
214	7243	67.255890949099	1417
214	7307	67.673106949099	1418
214	7307	67.673106949099	1419
214	7307	67.673106949099	1420
214	7307	67.673106949099	1421
214	7307	67.673106949099	1422
214	7307	67.673106949099	1423
214	7427	68.222226949099	1424
214	7427	68.222226949099	1425
214	7427	68.222226949099	1426
214	7427	68.222226949099	1427
214	7427	68.222226949099	1428
214	7427	68.222226949099	1429
214	7508	68.496210949099	1430
214	7508	68.496210949099	1431
214	7508	68.496210949099	1432
214	7508	68.496210949099	1433
214	7508	68.496210949099	1434
214	7508	68.496210949099	1435
214	7561	68.639442949099	1436
214	7561	68.639442949099	1437
214	7561	68.639442949099	1438
214	7603	68.776626949099	1439
214	7603	68.776626949099	1440
214	7603	68.776626949099	1441
214	7643	68.913810949099	1442
214	7643	68.913810949099	1443
214	7643	68.913810949099	1444
214	7782	69.662162949099	1445
214	7782	69.662162949099	1446
214	7782	69.662162949099	1447
214	7782	69.662162949099	1448
214	7782	69.662162949099	1449
214	7782	69.662162949099	1450
214	7782	69.662162949099	1451
214	7782	69.662162949099	1452
214	7782	69.662162949099	1453
214	7782	69.662162949099	1454
214	7782	69.662162949099	1455
214	7782	69.662162949099	1456
214	7838	70.079378949099	1457
214	7838	70.079378949099	1458
214	7838	70.079378949099	1459
214	7838	70.079378949099	1460
214	7838	70.079378949099	1461
214	7838	70.079378949099	1462
214	7880	70.354130949099	1463
214	7880	70.354130949099	1464
214	7880	70.354130949099	1465
214	8120	73.087676339623	1466
214	8120	73.087676339623	1467
214	8120	73.087676339623	1468
214	8120	73.087676339623	1469
214	8120	73.087676339623	1470
214	8120	73.087676339623	1471
214	8120	73.087676339623	1472
214	8120	73.087676339623	1473
214	8120	73.087676339623	1474
214	8206	73.504892339623	1475
214	8206	73.504892339623	1476
214	8206	73.504892339623	1477
214	8206	73.504892339623	1478
214	8206	73.504892339623	1479
214	8206	73.504892339623	1480
214	8248	73.642076339623	1481
214	8248	73.642076339623	1482
214	8248	73.642076339623	1483
214	8248	73.642076339623	1484
214	8248	73.642076339623	1485
214	8248	73.642076339623	1486
214	8289	73.779260339623	1487
214	8289	73.779260339623	1488
214	8289	73.779260339623	1489
214	8289	73.779260339623	1490
214	8289	73.779260339623	1491
214	8289	73.779260339623	1492
214	8369	74.059292339623	1493
214	8369	74.059292339623	1494
214	8369	74.059292339623	1495
214	8369	74.059292339623	1496
214	8369	74.059292339623	1497
214	8369	74.059292339623	1498
214	8499	74.608412339623	1499
214	8499	74.608412339623	1500
214	8499	74.608412339623	1501
214	8499	74.608412339623	1502
214	8499	74.608412339623	1503
214	8499	74.608412339623	1504
214	8798	76.634327361152	1505
214	8798	76.634327361152	1506
214	8798	76.634327361152	1507
214	8809	79.01729340421	1508
214	8809	79.01729340421	1509
214	8809	79.01729340421	1510
214	8809	79.01729340421	1511
214	8809	79.01729340421	1512
214	8809	79.01729340421	1513
214	8966	84.618425490326	1514
214	8966	84.618425490326	1515
214	8966	84.618425490326	1516
214	9150	88.532124339623	1517
214	9150	88.532124339623	1518
214	9150	88.532124339623	1519
214	9260	88.997660339623	1520
214	9260	88.997660339623	1521
214	9260	88.997660339623	1522
214	9260	88.997660339623	1523
214	9260	88.997660339623	1524
214	9260	88.997660339623	1525
214	9260	88.997660339623	1526
214	9260	88.997660339623	1527
214	9260	88.997660339623	1528
214	9260	88.997660339623	1529
214	9260	88.997660339623	1530
214	9260	88.997660339623	1531
214	9326	89.415644339623	1532
214	9326	89.415644339623	1533
214	9326	89.415644339623	1534
214	9396	89.690012339623	1535
214	9396	89.690012339623	1536
214	9396	89.690012339623	1537
214	9396	89.690012339623	1538
214	9396	89.690012339623	1539
214	9396	89.690012339623	1540
214	9479	89.964380339623	1541
214	9479	89.964380339623	1542
214	9479	89.964380339623	1543
214	9538	90.519548339623	1544
214	9538	90.519548339623	1545
214	9538	90.519548339623	1546
218	4712	37.040704	1
218	8078	73.040704	2
218	9671	115.040704	3
217	4712	37.040704	1
217	8078	73.040704	2
217	9671	115.040704	3
220	113	4.039552	1400
220	117	4.039552	2800
220	117	4.039552	4200
220	117	4.039552	5600
220	120	4.039552	7000
220	120	4.039552	8400
220	120	4.039552	9800
220	403	4.503328	11200
220	403	4.503328	12600
220	403	4.503328	14000
220	437	4.640512	15400
220	437	4.640512	16800
220	437	4.640512	18200
220	483	4.920544	19600
220	483	4.920544	21000
220	483	4.920544	22400
220	483	4.920544	23800
220	483	4.920544	25200
220	483	4.920544	26600
220	483	4.920544	28000
220	483	4.920544	29400
220	483	4.920544	30800
220	530	5.057728	32200
220	530	5.057728	33600
220	530	5.057728	35000
220	586	5.303904	33600
220	586	5.303904	32200
220	586	5.303904	30800
220	586	5.303904	29400
220	586	5.303904	28000
220	586	5.303904	26600
220	586	5.303904	25200
220	586	5.303904	23800
220	586	5.303904	22400
220	586	5.303904	21000
220	586	5.303904	19600
220	586	5.303904	18200
220	586	5.303904	16800
220	586	5.303904	18200
220	586	5.303904	19600
220	586	5.303904	21000
220	650	5.52112	19600
220	650	5.52112	18200
220	650	5.52112	16800
220	650	5.52112	15400
220	650	5.52112	14000
220	650	5.52112	12600
220	650	5.52112	14000
220	650	5.52112	15400
220	650	5.52112	16800
220	650	5.52112	18200
220	650	5.52112	19600
220	650	5.52112	21000
220	702	5.858304	19600
220	702	5.858304	18200
220	702	5.858304	16800
220	702	5.858304	18200
220	702	5.858304	19600
220	702	5.858304	21000
220	742	5.933056	22400
220	742	5.933056	23800
220	742	5.933056	25200
220	796	6.344992	26600
220	796	6.344992	28000
220	796	6.344992	29400
220	861	6.762592	30800
220	861	6.762592	32200
220	861	6.762592	33600
220	861	6.762592	35000
220	861	6.762592	36400
220	861	6.762592	37800
220	928	7.179808	36400
220	928	7.179808	35000
220	928	7.179808	33600
220	928	7.179808	32200
220	928	7.179808	30800
220	928	7.179808	29400
220	928	7.179808	30800
220	928	7.179808	32200
220	928	7.179808	33600
220	967	7.316992	35000
220	967	7.316992	36400
220	967	7.316992	37800
220	1011	7.454176	39200
220	1011	7.454176	40600
220	1011	7.454176	42000
220	1091	7.871392	43400
220	1091	7.871392	44800
220	1091	7.871392	46200
220	1091	7.871392	47600
220	1091	7.871392	49000
220	1091	7.871392	50400
220	1142	8.316992	49000
220	1142	8.316992	50400
220	1142	8.316992	49000
220	1142	8.316992	50400
220	1142	8.316992	49000
220	1142	8.316992	50400
220	1142	8.316992	49000
220	1142	8.316992	50400
220	1142	8.316992	49000
220	1142	8.316992	50400
220	1142	8.316992	49000
220	1142	8.316992	50400
220	1142	8.316992	49000
220	1142	8.316992	50400
220	1142	8.316992	49000
220	1142	8.316992	50400
220	1142	8.316992	49000
220	1142	8.316992	50400
220	1142	8.316992	49000
220	1142	8.316992	50400
220	1142	8.316992	49000
220	1142	8.316992	50400
220	1142	8.316992	49000
220	1142	8.316992	50400
220	1142	8.316992	49000
220	1142	8.316992	50400
220	1142	8.316992	49000
220	1142	8.316992	50400
220	1142	8.316992	49000
220	1142	8.316992	50400
220	1228	8.87216	49000
220	1228	8.87216	47600
220	1228	8.87216	46200
220	1228	8.87216	44800
220	1228	8.87216	43400
220	1228	8.87216	42000
220	1228	8.87216	40600
220	1228	8.87216	39200
220	1228	8.87216	37800
220	1228	8.87216	36400
220	1228	8.87216	35000
220	1228	8.87216	33600
220	1228	8.87216	32200
220	1228	8.87216	30800
220	1228	8.87216	29400
220	1228	8.87216	28000
220	1228	8.87216	26600
220	1228	8.87216	25200
220	1228	8.87216	23800
220	1228	8.87216	22400
220	1228	8.87216	21000
220	1228	8.87216	19600
220	1228	8.87216	18200
220	1228	8.87216	16800
220	1228	8.87216	15400
220	1228	8.87216	14000
220	1228	8.87216	12600
220	1295	9.488992	11200
220	1295	9.488992	9800
220	1295	9.488992	8400
220	1295	9.488992	9800
220	1295	9.488992	11200
220	1295	9.488992	12600
220	1295	9.488992	14000
220	1295	9.488992	15400
220	1295	9.488992	16800
220	1369	11.641527158206	15400
220	1369	11.641527158206	16800
220	1369	11.641527158206	15400
220	1369	11.641527158206	16800
220	1369	11.641527158206	15400
220	1369	11.641527158206	16800
220	1369	11.641527158206	15400
220	1369	11.641527158206	16800
220	1369	11.641527158206	15400
220	1369	11.641527158206	16800
220	1369	11.641527158206	15400
220	1369	11.641527158206	16800
220	1369	11.641527158206	15400
220	1369	11.641527158206	16800
220	1369	11.641527158206	15400
220	1369	11.641527158206	16800
220	1369	11.641527158206	15400
220	1369	11.641527158206	16800
220	1369	11.641527158206	15400
220	1369	11.641527158206	16800
220	1369	11.641527158206	15400
220	1369	11.641527158206	16800
220	1369	11.641527158206	15400
220	1369	11.641527158206	16800
220	1435	12.196695158206	15400
220	1435	12.196695158206	14000
220	1435	12.196695158206	12600
220	1435	12.196695158206	11200
220	1435	12.196695158206	9800
220	1435	12.196695158206	8400
220	1435	12.196695158206	7000
220	1435	12.196695158206	5600
220	1435	12.196695158206	4200
220	1435	12.196695158206	5600
220	1435	12.196695158206	7000
220	1435	12.196695158206	8400
220	1435	12.196695158206	9800
220	1435	12.196695158206	11200
220	1435	12.196695158206	12600
220	1498	15.946597474618	11200
220	1498	15.946597474618	12600
220	1498	15.946597474618	11200
220	1498	15.946597474618	12600
220	1498	15.946597474618	11200
220	1498	15.946597474618	12600
220	1498	15.946597474618	11200
220	1498	15.946597474618	12600
220	1498	15.946597474618	11200
220	1498	15.946597474618	12600
220	1498	15.946597474618	11200
220	1498	15.946597474618	12600
220	1498	15.946597474618	11200
220	1498	15.946597474618	12600
220	1498	15.946597474618	11200
220	1498	15.946597474618	12600
220	1498	15.946597474618	11200
220	1498	15.946597474618	12600
220	1549	16.502917474618	11200
220	1549	16.502917474618	9800
220	1549	16.502917474618	8400
220	1549	16.502917474618	7000
220	1549	16.502917474618	5600
220	1549	16.502917474618	4200
220	1549	16.502917474618	5600
220	1549	16.502917474618	7000
220	1549	16.502917474618	8400
220	1549	16.502917474618	9800
220	1549	16.502917474618	11200
220	1549	16.502917474618	12600
220	1631	17.056933474618	11200
220	1631	17.056933474618	9800
220	1631	17.056933474618	8400
220	1631	17.056933474618	7000
220	1631	17.056933474618	5600
220	1631	17.056933474618	4200
220	1631	17.056933474618	5600
220	1631	17.056933474618	7000
220	1631	17.056933474618	8400
220	1631	17.056933474618	9800
220	1631	17.056933474618	11200
220	1631	17.056933474618	12600
220	1631	17.056933474618	14000
220	1631	17.056933474618	15400
220	1631	17.056933474618	16800
220	1686	17.394117474618	15400
220	1686	17.394117474618	14000
220	1686	17.394117474618	12600
220	1686	17.394117474618	14000
220	1686	17.394117474618	15400
220	1686	17.394117474618	16800
220	1686	17.394117474618	18200
220	1686	17.394117474618	19600
220	1686	17.394117474618	21000
220	1755	17.610949474618	19600
220	1755	17.610949474618	18200
220	1755	17.610949474618	16800
220	1755	17.610949474618	15400
220	1755	17.610949474618	14000
220	1755	17.610949474618	12600
220	1755	17.610949474618	14000
220	1755	17.610949474618	15400
220	1755	17.610949474618	16800
220	1755	17.610949474618	18200
220	1755	17.610949474618	19600
220	1755	17.610949474618	21000
220	1755	17.610949474618	22400
220	1755	17.610949474618	23800
220	1755	17.610949474618	25200
220	1927	17.885317474618	23800
220	1927	17.885317474618	22400
220	1927	17.885317474618	21000
220	1927	17.885317474618	19600
220	1927	17.885317474618	18200
220	1927	17.885317474618	16800
220	1927	17.885317474618	18200
220	1927	17.885317474618	19600
220	1927	17.885317474618	21000
220	1927	17.885317474618	22400
220	1927	17.885317474618	23800
220	1927	17.885317474618	25200
220	1996	18.159685474618	23800
220	1996	18.159685474618	22400
220	1996	18.159685474618	21000
220	1996	18.159685474618	19600
220	1996	18.159685474618	18200
220	1996	18.159685474618	16800
220	1996	18.159685474618	18200
220	1996	18.159685474618	19600
220	1996	18.159685474618	21000
220	1996	18.159685474618	22400
220	1996	18.159685474618	23800
220	1996	18.159685474618	25200
220	2051	18.434437474618	26600
220	2051	18.434437474618	28000
220	2051	18.434437474618	29400
220	2091	18.571621474618	30800
220	2091	18.571621474618	32200
220	2091	18.571621474618	33600
220	2195	19.120741474618	35000
220	2195	19.120741474618	36400
220	2195	19.120741474618	37800
220	2272	19.538341474618	36400
220	2272	19.538341474618	35000
220	2272	19.538341474618	33600
220	2272	19.538341474618	32200
220	2272	19.538341474618	30800
220	2272	19.538341474618	29400
220	2272	19.538341474618	28000
220	2272	19.538341474618	26600
220	2272	19.538341474618	25200
220	2272	19.538341474618	26600
220	2272	19.538341474618	28000
220	2272	19.538341474618	29400
220	2272	19.538341474618	30800
220	2272	19.538341474618	32200
220	2272	19.538341474618	33600
220	2339	19.955941474618	32200
220	2339	19.955941474618	30800
220	2339	19.955941474618	29400
220	2339	19.955941474618	30800
220	2339	19.955941474618	32200
220	2339	19.955941474618	33600
220	2385	20.092741474618	32200
220	2385	20.092741474618	30800
220	2385	20.092741474618	29400
220	2385	20.092741474618	28000
220	2385	20.092741474618	26600
220	2385	20.092741474618	25200
220	2385	20.092741474618	23800
220	2385	20.092741474618	22400
220	2385	20.092741474618	21000
220	2385	20.092741474618	22400
220	2385	20.092741474618	23800
220	2385	20.092741474618	25200
220	2452	20.504677474618	26600
220	2452	20.504677474618	28000
220	2452	20.504677474618	29400
220	2452	20.504677474618	30800
220	2452	20.504677474618	32200
220	2452	20.504677474618	33600
220	2496	21.190298866458	32200
220	2496	21.190298866458	33600
220	2496	21.190298866458	32200
220	2496	21.190298866458	33600
220	2496	21.190298866458	32200
220	2496	21.190298866458	33600
220	2496	21.190298866458	32200
220	2496	21.190298866458	33600
220	2496	21.190298866458	32200
220	2496	21.190298866458	33600
220	2496	21.190298866458	32200
220	2496	21.190298866458	33600
220	2496	21.190298866458	32200
220	2496	21.190298866458	33600
220	2496	21.190298866458	32200
220	2496	21.190298866458	33600
220	2496	21.190298866458	32200
220	2496	21.190298866458	33600
220	2496	21.190298866458	32200
220	2496	21.190298866458	33600
220	2496	21.190298866458	32200
220	2496	21.190298866458	33600
220	2496	21.190298866458	32200
220	2496	21.190298866458	33600
220	2496	21.190298866458	32200
220	2496	21.190298866458	33600
220	2496	21.190298866458	32200
220	2496	21.190298866458	33600
220	2496	21.190298866458	32200
220	2496	21.190298866458	33600
220	2580	23.190298866458	32200
220	2580	23.190298866458	33600
220	2580	23.190298866458	32200
220	2580	23.190298866458	33600
220	2580	23.190298866458	32200
220	2580	23.190298866458	33600
220	2580	23.190298866458	32200
220	2580	23.190298866458	33600
220	2580	23.190298866458	32200
220	2580	23.190298866458	33600
220	2580	23.190298866458	32200
220	2580	23.190298866458	33600
220	2648	23.607514866458	32200
220	2648	23.607514866458	30800
220	2648	23.607514866458	29400
220	2648	23.607514866458	28000
220	2648	23.607514866458	26600
220	2648	23.607514866458	25200
220	2648	23.607514866458	23800
220	2648	23.607514866458	22400
220	2648	23.607514866458	21000
220	2648	23.607514866458	19600
220	2648	23.607514866458	18200
220	2648	23.607514866458	16800
220	2648	23.607514866458	15400
220	2648	23.607514866458	14000
220	2648	23.607514866458	12600
220	2648	23.607514866458	11200
220	2648	23.607514866458	9800
220	2648	23.607514866458	8400
220	2648	23.607514866458	9800
220	2648	23.607514866458	11200
220	2648	23.607514866458	12600
220	2648	23.607514866458	14000
220	2648	23.607514866458	15400
220	2648	23.607514866458	16800
220	2723	24.224346866458	15400
220	2723	24.224346866458	14000
220	2723	24.224346866458	12600
220	2723	24.224346866458	11200
220	2723	24.224346866458	9800
220	2723	24.224346866458	8400
220	2723	24.224346866458	9800
220	2723	24.224346866458	11200
220	2723	24.224346866458	12600
220	2723	24.224346866458	14000
220	2723	24.224346866458	15400
220	2723	24.224346866458	16800
220	2755	24.299098866458	18200
220	2755	24.299098866458	19600
220	2755	24.299098866458	21000
220	2808	24.779130866458	22400
220	2808	24.779130866458	23800
220	2808	24.779130866458	25200
220	2842	24.916314866458	26600
220	2842	24.916314866458	28000
220	2842	24.916314866458	29400
220	2842	24.916314866458	30800
220	2842	24.916314866458	32200
220	2842	24.916314866458	33600
220	2899	25.196730866458	35000
220	2899	25.196730866458	36400
220	2899	25.196730866458	37800
220	2978	25.470714866458	36400
220	2978	25.470714866458	35000
220	2978	25.470714866458	33600
220	2978	25.470714866458	32200
220	2978	25.470714866458	30800
220	2978	25.470714866458	29400
220	2978	25.470714866458	30800
220	2978	25.470714866458	32200
220	2978	25.470714866458	33600
220	2978	25.470714866458	35000
220	2978	25.470714866458	36400
220	2978	25.470714866458	37800
220	3014	25.607898866458	39200
220	3014	25.607898866458	40600
220	3014	25.607898866458	42000
220	3069	26.157018866458	43400
220	3069	26.157018866458	44800
220	3069	26.157018866458	46200
220	3109	26.575002866458	47600
220	3109	26.575002866458	49000
220	3109	26.575002866458	50400
220	3123	26.918671939678	49000
220	3123	26.918671939678	50400
220	3123	26.918671939678	49000
220	3123	26.918671939678	50400
220	3123	26.918671939678	49000
220	3123	26.918671939678	50400
220	3123	26.918671939678	49000
220	3123	26.918671939678	50400
220	3123	26.918671939678	49000
220	3123	26.918671939678	50400
220	3123	26.918671939678	49000
220	3123	26.918671939678	50400
220	3123	26.918671939678	49000
220	3123	26.918671939678	50400
220	3123	26.918671939678	49000
220	3123	26.918671939678	50400
220	3123	26.918671939678	49000
220	3123	26.918671939678	50400
220	3123	26.918671939678	49000
220	3123	26.918671939678	50400
220	3123	26.918671939678	49000
220	3123	26.918671939678	50400
220	3123	26.918671939678	49000
220	3123	26.918671939678	50400
220	3123	26.918671939678	49000
220	3123	26.918671939678	50400
220	3123	26.918671939678	49000
220	3123	26.918671939678	50400
220	3123	26.918671939678	49000
220	3123	26.918671939678	50400
220	3221	27.336271939678	49000
220	3221	27.336271939678	47600
220	3221	27.336271939678	46200
220	3221	27.336271939678	44800
220	3221	27.336271939678	43400
220	3221	27.336271939678	42000
220	3221	27.336271939678	40600
220	3221	27.336271939678	39200
220	3221	27.336271939678	37800
220	3221	27.336271939678	36400
220	3221	27.336271939678	35000
220	3221	27.336271939678	33600
220	3221	27.336271939678	32200
220	3221	27.336271939678	30800
220	3221	27.336271939678	29400
220	3221	27.336271939678	28000
220	3221	27.336271939678	26600
220	3221	27.336271939678	25200
220	3291	27.753487939678	26600
220	3291	27.753487939678	28000
220	3291	27.753487939678	29400
220	3291	27.753487939678	30800
220	3291	27.753487939678	32200
220	3291	27.753487939678	33600
220	3291	27.753487939678	35000
220	3291	27.753487939678	36400
220	3291	27.753487939678	37800
220	3352	28.170703939678	39200
220	3352	28.170703939678	40600
220	3352	28.170703939678	42000
220	3352	28.170703939678	43400
220	3352	28.170703939678	44800
220	3352	28.170703939678	46200
220	3495	28.307887939678	47600
220	3495	28.307887939678	49000
220	3495	28.307887939678	50400
220	3495	28.307887939678	51800
220	3495	28.307887939678	53200
220	3495	28.307887939678	54600
220	3574	28.587919939678	56000
220	3574	28.587919939678	57400
220	3574	28.587919939678	58800
220	3574	28.587919939678	60200
220	3574	28.587919939678	61600
220	3574	28.587919939678	63000
220	3579	28.664815055377	61600
220	3579	28.664815055377	63000
220	3579	28.664815055377	61600
220	3579	28.664815055377	63000
220	3579	28.664815055377	61600
220	3579	28.664815055377	63000
220	3579	28.664815055377	61600
220	3579	28.664815055377	63000
220	3579	28.664815055377	61600
220	3579	28.664815055377	63000
220	3579	28.664815055377	61600
220	3579	28.664815055377	63000
220	3579	28.664815055377	61600
220	3579	28.664815055377	63000
220	3579	28.664815055377	61600
220	3579	28.664815055377	63000
220	3579	28.664815055377	61600
220	3579	28.664815055377	63000
220	3579	28.664815055377	61600
220	3579	28.664815055377	63000
220	3579	28.664815055377	61600
220	3579	28.664815055377	63000
220	3579	28.664815055377	61600
220	3579	28.664815055377	63000
220	3579	28.664815055377	61600
220	3579	28.664815055377	63000
220	3579	28.664815055377	61600
220	3579	28.664815055377	63000
220	3579	28.664815055377	61600
220	3579	28.664815055377	63000
220	3579	28.664815055377	61600
220	3579	28.664815055377	63000
220	3579	28.664815055377	61600
220	3579	28.664815055377	63000
220	3579	28.664815055377	61600
220	3579	28.664815055377	63000
220	3872	29.548975939678	61600
220	3872	29.548975939678	60200
220	3872	29.548975939678	58800
220	3872	29.548975939678	57400
220	3872	29.548975939678	56000
220	3872	29.548975939678	54600
220	3872	29.548975939678	53200
220	3872	29.548975939678	51800
220	3872	29.548975939678	50400
220	3872	29.548975939678	49000
220	3872	29.548975939678	47600
220	3872	29.548975939678	46200
220	3872	29.548975939678	44800
220	3872	29.548975939678	43400
220	3872	29.548975939678	42000
220	3872	29.548975939678	40600
220	3872	29.548975939678	39200
220	3872	29.548975939678	37800
220	3872	29.548975939678	36400
220	3872	29.548975939678	35000
220	3872	29.548975939678	33600
220	3872	29.548975939678	32200
220	3872	29.548975939678	30800
220	3872	29.548975939678	29400
220	3872	29.548975939678	28000
220	3872	29.548975939678	26600
220	3872	29.548975939678	25200
220	3872	29.548975939678	23800
220	3872	29.548975939678	22400
220	3872	29.548975939678	21000
220	3872	29.548975939678	19600
220	3872	29.548975939678	18200
220	3872	29.548975939678	16800
220	3872	29.548975939678	15400
220	3872	29.548975939678	14000
220	3872	29.548975939678	12600
220	3872	29.548975939678	11200
220	3872	29.548975939678	9800
220	3872	29.548975939678	8400
220	3872	29.548975939678	7000
220	3872	29.548975939678	5600
220	3872	29.548975939678	4200
220	3872	29.548975939678	2800
220	3872	29.548975939678	1400
220	3872	29.548975939678	0
220	3872	29.548975939678	1400
220	3872	29.548975939678	2800
220	3872	29.548975939678	4200
220	3872	29.548975939678	5600
220	3872	29.548975939678	7000
220	3872	29.548975939678	8400
220	3872	29.548975939678	9800
220	3872	29.548975939678	11200
220	3872	29.548975939678	12600
220	3977	30.234895939678	11200
220	3977	30.234895939678	9800
220	3977	30.234895939678	8400
220	3977	30.234895939678	9800
220	3977	30.234895939678	11200
220	3977	30.234895939678	12600
220	3977	30.234895939678	14000
220	3977	30.234895939678	15400
220	3977	30.234895939678	16800
220	4032	30.652111939678	18200
220	4032	30.652111939678	19600
220	4032	30.652111939678	21000
220	4074	31.069711939678	22400
220	4074	31.069711939678	23800
220	4074	31.069711939678	25200
220	4101	31.481604838979	23800
220	4101	31.481604838979	25200
220	4101	31.481604838979	23800
220	4101	31.481604838979	25200
220	4101	31.481604838979	23800
220	4101	31.481604838979	25200
220	4101	31.481604838979	23800
220	4101	31.481604838979	25200
220	4101	31.481604838979	23800
220	4101	31.481604838979	25200
220	4101	31.481604838979	23800
220	4101	31.481604838979	25200
220	4101	31.481604838979	23800
220	4101	31.481604838979	25200
220	4101	31.481604838979	23800
220	4101	31.481604838979	25200
220	4101	31.481604838979	23800
220	4101	31.481604838979	25200
220	4101	31.481604838979	23800
220	4101	31.481604838979	25200
220	4101	31.481604838979	23800
220	4101	31.481604838979	25200
220	4101	31.481604838979	23800
220	4101	31.481604838979	25200
220	4179	31.899204838979	23800
220	4179	31.899204838979	22400
220	4179	31.899204838979	21000
220	4179	31.899204838979	22400
220	4179	31.899204838979	23800
220	4179	31.899204838979	25200
220	4272	32.316036838979	23800
220	4272	32.316036838979	22400
220	4272	32.316036838979	21000
220	4272	32.316036838979	19600
220	4272	32.316036838979	18200
220	4272	32.316036838979	16800
220	4272	32.316036838979	15400
220	4272	32.316036838979	14000
220	4272	32.316036838979	12600
220	4272	32.316036838979	11200
220	4272	32.316036838979	9800
220	4272	32.316036838979	8400
220	4272	32.316036838979	7000
220	4272	32.316036838979	5600
220	4272	32.316036838979	4200
220	4272	32.316036838979	2800
220	4272	32.316036838979	1400
220	4272	32.316036838979	0
220	4272	32.316036838979	1400
220	4272	32.316036838979	2800
220	4272	32.316036838979	4200
220	4272	32.316036838979	5600
220	4272	32.316036838979	7000
220	4272	32.316036838979	8400
220	4272	32.316036838979	9800
220	4272	32.316036838979	11200
220	4272	32.316036838979	12600
220	4272	32.316036838979	14000
220	4272	32.316036838979	15400
220	4272	32.316036838979	16800
220	4348	32.870436838979	18200
220	4348	32.870436838979	19600
220	4348	32.870436838979	21000
220	4387	33.007620838979	22400
220	4387	33.007620838979	23800
220	4387	33.007620838979	25200
220	4424	33.144804838979	26600
220	4424	33.144804838979	28000
220	4424	33.144804838979	29400
220	4424	33.144804838979	30800
220	4424	33.144804838979	32200
220	4424	33.144804838979	33600
220	4465	33.287652838979	35000
220	4465	33.287652838979	36400
220	4465	33.287652838979	37800
220	4548	33.699204838979	36400
220	4548	33.699204838979	35000
220	4548	33.699204838979	33600
220	4548	33.699204838979	32200
220	4548	33.699204838979	30800
220	4548	33.699204838979	29400
220	4548	33.699204838979	28000
220	4548	33.699204838979	26600
220	4548	33.699204838979	25200
220	4548	33.699204838979	23800
220	4548	33.699204838979	22400
220	4548	33.699204838979	21000
220	4548	33.699204838979	19600
220	4548	33.699204838979	18200
220	4548	33.699204838979	16800
220	4548	33.699204838979	18200
220	4548	33.699204838979	19600
220	4548	33.699204838979	21000
220	4548	33.699204838979	22400
220	4548	33.699204838979	23800
220	4548	33.699204838979	25200
220	4590	34.699204838979	23800
220	4590	34.699204838979	25200
220	4590	34.699204838979	23800
220	4590	34.699204838979	25200
220	4590	34.699204838979	23800
220	4590	34.699204838979	25200
220	4590	34.699204838979	23800
220	4590	34.699204838979	25200
220	4590	34.699204838979	23800
220	4590	34.699204838979	25200
220	4590	34.699204838979	23800
220	4590	34.699204838979	25200
220	4590	34.699204838979	23800
220	4590	34.699204838979	25200
220	4590	34.699204838979	23800
220	4590	34.699204838979	25200
220	4590	34.699204838979	23800
220	4590	34.699204838979	25200
220	4590	34.699204838979	23800
220	4590	34.699204838979	25200
220	4590	34.699204838979	23800
220	4590	34.699204838979	25200
220	4590	34.699204838979	23800
220	4590	34.699204838979	25200
220	4590	34.699204838979	23800
220	4590	34.699204838979	25200
220	4590	34.699204838979	23800
220	4590	34.699204838979	25200
220	4590	34.699204838979	23800
220	4590	34.699204838979	25200
220	4649	36.699204838979	23800
220	4649	36.699204838979	25200
220	4649	36.699204838979	23800
220	4649	36.699204838979	25200
220	4649	36.699204838979	23800
220	4649	36.699204838979	25200
220	4649	36.699204838979	23800
220	4649	36.699204838979	25200
220	4649	36.699204838979	23800
220	4649	36.699204838979	25200
220	4649	36.699204838979	23800
220	4649	36.699204838979	25200
220	4790	37.117188838979	23800
220	4790	37.117188838979	22400
220	4790	37.117188838979	21000
220	4790	37.117188838979	19600
220	4790	37.117188838979	18200
220	4790	37.117188838979	16800
220	4790	37.117188838979	15400
220	4790	37.117188838979	14000
220	4790	37.117188838979	12600
220	4885	40.699204838979	11200
220	4885	40.699204838979	9800
220	4885	40.699204838979	8400
220	4885	40.699204838979	7000
220	4885	40.699204838979	5600
220	4885	40.699204838979	4200
220	4885	40.699204838979	2800
220	4885	40.699204838979	1400
220	4885	40.699204838979	0
220	4885	40.699204838979	1400
220	4885	40.699204838979	2800
220	4885	40.699204838979	4200
220	4885	40.699204838979	5600
220	4885	40.699204838979	7000
220	4885	40.699204838979	8400
220	4985	41.254756838979	9800
220	4985	41.254756838979	11200
220	4985	41.254756838979	12600
220	5048	42.254756838979	14000
220	5048	42.254756838979	15400
220	5048	42.254756838979	16800
220	5083	42.873124838979	15400
220	5083	42.873124838979	14000
220	5083	42.873124838979	12600
220	5083	42.873124838979	14000
220	5083	42.873124838979	15400
220	5083	42.873124838979	16800
220	5083	42.873124838979	18200
220	5083	42.873124838979	19600
220	5083	42.873124838979	21000
220	5138	43.290340838979	22400
220	5138	43.290340838979	23800
220	5138	43.290340838979	25200
220	5138	43.290340838979	26600
220	5138	43.290340838979	28000
220	5138	43.290340838979	29400
220	5138	43.290340838979	30800
220	5138	43.290340838979	32200
220	5138	43.290340838979	33600
220	5236	43.844740838979	32200
220	5236	43.844740838979	30800
220	5236	43.844740838979	29400
220	5236	43.844740838979	28000
220	5236	43.844740838979	26600
220	5236	43.844740838979	25200
220	5236	43.844740838979	23800
220	5236	43.844740838979	22400
220	5236	43.844740838979	21000
220	5236	43.844740838979	19600
220	5236	43.844740838979	18200
220	5236	43.844740838979	16800
220	5236	43.844740838979	18200
220	5236	43.844740838979	19600
220	5236	43.844740838979	21000
220	5236	43.844740838979	22400
220	5236	43.844740838979	23800
220	5236	43.844740838979	25200
220	5379	43.981924838979	26600
220	5379	43.981924838979	28000
220	5379	43.981924838979	29400
220	5477	44.536708838979	30800
220	5477	44.536708838979	32200
220	5477	44.536708838979	33600
220	5477	44.536708838979	35000
220	5477	44.536708838979	36400
220	5477	44.536708838979	37800
220	5477	44.536708838979	39200
220	5477	44.536708838979	40600
220	5477	44.536708838979	42000
220	5573	45.228676838979	43400
220	5573	45.228676838979	44800
220	5573	45.228676838979	46200
220	5573	45.228676838979	47600
220	5573	45.228676838979	49000
220	5573	45.228676838979	50400
220	5610	45.365860838979	51800
220	5610	45.365860838979	53200
220	5610	45.365860838979	54600
220	5661	45.646276838979	56000
220	5661	45.646276838979	57400
220	5661	45.646276838979	58800
220	5728	46.057828838979	60200
220	5728	46.057828838979	61600
220	5728	46.057828838979	63000
220	5728	46.057828838979	64400
220	5728	46.057828838979	65800
220	5728	46.057828838979	67200
220	5734	46.161439006508	65800
220	5734	46.161439006508	64400
220	5734	46.161439006508	63000
220	5734	46.161439006508	61600
220	5734	46.161439006508	60200
220	5734	46.161439006508	58800
220	5734	46.161439006508	57400
220	5734	46.161439006508	56000
220	5734	46.161439006508	54600
220	5734	46.161439006508	53200
220	5734	46.161439006508	51800
220	5734	46.161439006508	50400
220	5734	46.161439006508	49000
220	5734	46.161439006508	47600
220	5734	46.161439006508	46200
220	5880	47.030212838979	47600
220	5880	47.030212838979	49000
220	5880	47.030212838979	50400
220	5896	48.161439006508	51800
220	5896	48.161439006508	53200
220	5896	48.161439006508	54600
220	5913	49.568052209019	53200
220	5913	49.568052209019	51800
220	5913	49.568052209019	50400
220	5913	49.568052209019	49000
220	5913	49.568052209019	47600
220	5913	49.568052209019	46200
220	5913	49.568052209019	47600
220	5913	49.568052209019	49000
220	5913	49.568052209019	50400
220	5913	49.568052209019	51800
220	5913	49.568052209019	53200
220	5913	49.568052209019	54600
220	6040	49.986644209019	53200
220	6040	49.986644209019	51800
220	6040	49.986644209019	50400
220	6040	49.986644209019	49000
220	6040	49.986644209019	47600
220	6040	49.986644209019	46200
220	6040	49.986644209019	44800
220	6040	49.986644209019	43400
220	6040	49.986644209019	42000
220	6040	49.986644209019	40600
220	6040	49.986644209019	39200
220	6040	49.986644209019	37800
220	6040	49.986644209019	36400
220	6040	49.986644209019	35000
220	6040	49.986644209019	33600
220	6040	49.986644209019	32200
220	6040	49.986644209019	30800
220	6040	49.986644209019	29400
220	6040	49.986644209019	28000
220	6040	49.986644209019	26600
220	6040	49.986644209019	25200
220	6040	49.986644209019	23800
220	6040	49.986644209019	22400
220	6040	49.986644209019	21000
220	6040	49.986644209019	19600
220	6040	49.986644209019	18200
220	6040	49.986644209019	16800
220	6040	49.986644209019	15400
220	6040	49.986644209019	14000
220	6040	49.986644209019	12600
220	6040	49.986644209019	11200
220	6040	49.986644209019	9800
220	6040	49.986644209019	8400
220	6042	53.986644209019	9800
220	6042	53.986644209019	11200
220	6042	53.986644209019	12600
220	6058	54.643730949099	11200
220	6058	54.643730949099	9800
220	6058	54.643730949099	8400
220	6058	54.643730949099	7000
220	6058	54.643730949099	5600
220	6058	54.643730949099	4200
220	6058	54.643730949099	2800
220	6058	54.643730949099	1400
220	6058	54.643730949099	0
220	6120	62.643730949099	1400
220	6120	62.643730949099	2800
220	6120	62.643730949099	4200
220	6120	62.643730949099	5600
220	6120	62.643730949099	7000
220	6120	62.643730949099	8400
220	6213	63.060946949099	7000
220	6213	63.060946949099	5600
220	6213	63.060946949099	4200
220	6213	63.060946949099	5600
220	6213	63.060946949099	7000
220	6213	63.060946949099	8400
220	6213	63.060946949099	9800
220	6213	63.060946949099	11200
220	6213	63.060946949099	12600
220	6266	63.397746949099	11200
220	6266	63.397746949099	9800
220	6266	63.397746949099	8400
220	6266	63.397746949099	9800
220	6266	63.397746949099	11200
[...]
156	8707	76.211447361152	0
156	8768	76.491479361152	0
156	8839	79.29166140421	0
156	8910	84.057593490326	0
156	8944	84.475193490326	0
156	9570	91.33917818218	0
156	9579	91.47636218218	0
156	9631	91.75677818218	0
156	9718	120.274368	0
156	9725	120.411552	0.135808
157	0	0	0
157	9723	120.275744	1
157	9725	120.411552	0
158	0	0	0
158	345	4.044832	1
158	347	4.046592	0
158	4736	37.043072	1
158	4740	37.044832	0
158	4745	37.044832	1
158	4750	37.046592	0
158	4929	40.973572838979	1
158	4938	41.110756838979	0
158	4950	41.110756838979	1
158	4955	41.247940838979	0
158	4962	41.247940838979	1
158	4990	41.385124838979	0
158	5788	46.572991006508	1
158	5820	46.710175006508	0
158	5853	46.887364838979	1
158	5855	47.024548838979	0
158	5944	49.842420209019	1
158	5948	49.979604209019	0
158	6081	55.055282949099	1
158	6083	55.192466949099	0
158	6138	62.736850949099	1
158	6146	62.783410949099	0
158	7980	72.252092339623	1
158	7984	72.389276339623	0
158	7989	72.389276339623	1
158	7991	72.526460339623	0
158	8048	72.944828339623	1
158	8092	73.082012339623	0
158	8097	73.082012339623	1
158	8129	73.219196339623	0
158	8700	76.074263361152	1
158	8704	76.211447361152	0
158	8709	76.211447361152	1
158	8737	76.348631361152	0
158	8769	76.491479361152	1
158	8773	76.628663361152	0
158	8842	79.29166140421	1
158	8847	79.42884540421	0
158	8911	84.057593490326	1
158	8913	84.194777490326	0
158	8945	84.475193490326	1
158	8947	84.612377490326	0
158	9572	91.33917818218	1
158	9576	91.47636218218	0
158	9581	91.47636218218	1
158	9609	91.61354618218	0
158	9632	91.75677818218	1
158	9635	91.89396218218	0
158	9719	120.274368	1
158	9725	120.411552	0
158	9727	120.411552	1
158	9739	120.412928	0
159	345	4.044832	55
159	4736	37.043072	55
159	4745	37.044832	55
159	4929	40.973572838979	4287
159	4950	41.110756838979	4287
159	4962	41.247940838979	4287
159	5788	46.572991006508	4287
159	5853	46.887364838979	4287
159	5944	49.842420209019	4287
159	6081	55.055282949099	4287
159	6138	62.736850949099	1455
159	7980	72.252092339623	4287
159	7989	72.389276339623	4287
159	8048	72.944828339623	4287
159	8097	73.082012339623	4287
159	8700	76.074263361152	4287
159	8709	76.211447361152	4287
159	8769	76.491479361152	4287
159	8842	79.29166140421	4287
159	8911	84.057593490326	4287
159	8945	84.475193490326	4287
159	9572	91.33917818218	4287
159	9581	91.47636218218	4287
159	9632	91.75677818218	4287
159	9719	120.274368	4287
159	9727	120.411552	43
160	91	4.037184	55
160	4682	37.037184	55
160	4751	37.046592	55
160	4972	41.250212838979	71
160	5005	41.387012838979	59
160	5832	46.712191006508	63
160	5867	47.026436838979	59
160	6011	49.981364209019	55
160	6017	49.983124209019	55
160	6095	55.194354949099	59
160	6154	62.785426949099	63
160	8009	72.528732339623	71
160	8059	73.037184	55
160	8107	73.083900339623	59
160	8141	73.221084339623	59
160	8719	76.213335361152	59
160	8743	76.350903361152	71
160	8785	76.630551361152	59
160	8867	79.43086140421	63
160	8919	84.196793490326	63
160	8953	84.614393490326	63
160	9591	91.47837818218	63
160	9647	115.037184	55
160	9745	120.413696	67
161	6028	49.984884209019	55
161	9621	91.61556218218	63
163	345	4.044832	48
163	4736	37.043072	48
163	4745	37.044832	48
163	4929	40.973572838979	4280
163	4950	41.110756838979	4280
163	4962	41.247940838979	4280
163	5788	46.572991006508	4280
163	5853	46.887364838979	4280
163	5944	49.842420209019	4280
163	6081	55.055282949099	4280
163	6138	62.736850949099	1448
163	7980	72.252092339623	4280
163	7989	72.389276339623	4280
163	8048	72.944828339623	4280
163	8097	73.082012339623	4280
163	8700	76.074263361152	4280
163	8709	76.211447361152	4280
163	8769	76.491479361152	4280
163	8842	79.29166140421	4280
163	8911	84.057593490326	4280
163	8945	84.475193490326	4280
163	9572	91.33917818218	4280
163	9581	91.47636218218	4280
163	9632	91.75677818218	4280
163	9719	120.274368	4280
163	9727	120.411552	36
164	91	4.037184	48
164	4682	37.037184	48
164	4751	37.046592	48
164	4972	41.250212838979	64
164	5005	41.387012838979	52
164	5832	46.712191006508	56
164	5867	47.026436838979	52
164	6011	49.981364209019	48
164	6017	49.983124209019	48
164	6095	55.194354949099	52
164	6154	62.785426949099	56
164	8009	72.528732339623	64
164	8059	73.037184	48
164	8107	73.083900339623	52
164	8141	73.221084339623	52
164	8719	76.213335361152	52
164	8743	76.350903361152	64
164	8785	76.630551361152	52
164	8867	79.43086140421	56
164	8919	84.196793490326	56
164	8953	84.614393490326	56
164	9591	91.47837818218	56
164	9647	115.037184	48
164	9745	120.413696	60
343	539	5.098624	1400
343	540	5.098624	2800
343	541	5.098624	4200
343	542	5.098624	5600
343	543	5.098624	7000
343	544	5.098624	8400
343	545	5.098624	9800
343	546	5.098624	11200
343	547	5.098624	12600
343	548	5.098624	14000
343	549	5.098624	15400
343	550	5.098624	16800
343	551	5.098624	18200
343	610	5.378656	19600
343	611	5.378656	21000
343	612	5.378656	22400
343	633	5.51584	23800
343	634	5.51584	25200
343	635	5.51584	26600
343	671	5.653024	28000
343	672	5.653024	29400
343	673	5.653024	30800
343	908	7.174144	32200
343	909	7.174144	33600
343	910	7.174144	35000
343	911	7.174144	36400
343	912	7.174144	37800
343	913	7.174144	39200
343	1181	8.728544	40600
343	1182	8.728544	42000
343	1183	8.728544	43400
343	1184	8.728544	44800
343	1185	8.728544	46200
343	1186	8.728544	47600
343	1187	8.728544	49000
343	1188	8.728544	50400
343	1189	8.728544	51800
343	1190	8.728544	53200
343	1191	8.728544	54600
343	1192	8.728544	56000
343	1193	8.728544	57400
343	1194	8.728544	58800
343	1195	8.728544	60200
343	1196	8.728544	61600
343	1197	8.728544	63000
343	1198	8.728544	64400
343	1199	8.728544	65800
343	1200	8.728544	67200
343	1201	8.728544	68600
343	1202	8.728544	70000
343	1203	8.728544	71400
343	1204	8.728544	72800
343	1205	8.728544	74200
343	1206	8.728544	75600
343	1207	8.728544	77000
343	1270	9.283712	78400
343	1271	9.283712	79800
343	1272	9.283712	81200
343	1406	12.053079158206	82600
343	1407	12.053079158206	84000
343	1408	12.053079158206	85400
343	1409	12.053079158206	86800
343	1410	12.053079158206	88200
343	1411	12.053079158206	89600
343	1412	12.053079158206	91000
343	1413	12.053079158206	92400
343	1414	12.053079158206	93800
343	1477	12.608247158206	95200
343	1478	12.608247158206	96600
343	1479	12.608247158206	98000
343	1492	12.745431158206	99400
343	1493	12.745431158206	100800
343	1494	12.745431158206	102200
343	1594	16.914469474618	103600
343	1595	16.914469474618	105000
343	1596	16.914469474618	106400
343	1614	17.051653474618	107800
343	1615	17.051653474618	109200
343	1616	17.051653474618	110600
343	1649	17.188837474618	112000
343	1650	17.188837474618	113400
343	1651	17.188837474618	114800
343	1712	17.468485474618	116200
343	1713	17.468485474618	117600
343	1714	17.468485474618	119000
343	1738	17.605669474618	120400
343	1739	17.605669474618	121800
343	1740	17.605669474618	123200
343	1884	17.742853474618	124600
343	1885	17.742853474618	126000
343	1886	17.742853474618	127400
343	1910	17.880037474618	128800
343	1911	17.880037474618	130200
343	1912	17.880037474618	131600
343	1953	18.017221474618	133000
343	1954	18.017221474618	134400
343	1955	18.017221474618	135800
343	1979	18.154405474618	137200
343	1980	18.154405474618	138600
343	1981	18.154405474618	140000
343	2229	19.395109474618	141400
343	2230	19.395109474618	142800
343	2231	19.395109474618	144200
343	2232	19.395109474618	145600
343	2233	19.395109474618	147000
343	2234	19.395109474618	148400
343	2235	19.395109474618	149800
343	2236	19.395109474618	151200
343	2237	19.395109474618	152600
343	2322	19.949893474618	154000
343	2323	19.949893474618	155400
343	2324	19.949893474618	156800
343	2362	20.087077474618	158200
343	2363	20.087077474618	159600
343	2364	20.087077474618	161000
343	2365	20.087077474618	162400
343	2366	20.087077474618	163800
343	2367	20.087077474618	165200
343	2368	20.087077474618	166600
343	2369	20.087077474618	168000
343	2370	20.087077474618	169400
343	2616	23.601850866458	170800
343	2617	23.601850866458	172200
343	2618	23.601850866458	173600
343	2619	23.601850866458	175000
343	2620	23.601850866458	176400
343	2621	23.601850866458	177800
343	2622	23.601850866458	179200
343	2623	23.601850866458	180600
343	2624	23.601850866458	182000
343	2625	23.601850866458	183400
343	2626	23.601850866458	184800
343	2627	23.601850866458	186200
343	2628	23.601850866458	187600
343	2629	23.601850866458	189000
343	2630	23.601850866458	190400
343	2631	23.601850866458	191800
343	2632	23.601850866458	193200
343	2633	23.601850866458	194600
343	2693	24.019066866458	196000
343	2694	24.019066866458	197400
343	2695	24.019066866458	198800
343	2696	24.019066866458	200200
343	2697	24.019066866458	201600
343	2698	24.019066866458	203000
343	2927	25.327866866458	204400
343	2928	25.327866866458	205800
343	2929	25.327866866458	207200
343	2930	25.327866866458	208600
343	2931	25.327866866458	210000
343	2932	25.327866866458	211400
343	3189	27.330223939678	212800
343	3190	27.330223939678	214200
343	3191	27.330223939678	215600
343	3192	27.330223939678	217000
343	3193	27.330223939678	218400
343	3194	27.330223939678	219800
343	3195	27.330223939678	221200
343	3196	27.330223939678	222600
343	3197	27.330223939678	224000
343	3198	27.330223939678	225400
343	3199	27.330223939678	226800
343	3200	27.330223939678	228200
343	3201	27.330223939678	229600
343	3202	27.330223939678	231000
343	3203	27.330223939678	232400
343	3204	27.330223939678	233800
343	3205	27.330223939678	235200
343	3206	27.330223939678	236600
343	3791	29.405359939678	238000
343	3792	29.405359939678	239400
343	3793	29.405359939678	240800
343	3794	29.405359939678	242200
343	3795	29.405359939678	243600
343	3796	29.405359939678	245000
343	3797	29.405359939678	246400
343	3798	29.405359939678	247800
343	3799	29.405359939678	249200
343	3801	29.405359939678	250600
343	3802	29.405359939678	252000
343	3803	29.405359939678	253400
343	3804	29.405359939678	254800
343	3805	29.405359939678	256200
343	3806	29.405359939678	257600
343	3807	29.405359939678	259000
343	3808	29.405359939678	260400
343	3809	29.405359939678	261800
343	3810	29.405359939678	263200
343	3811	29.405359939678	264600
343	3812	29.405359939678	266000
343	3813	29.405359939678	267400
343	3814	29.405359939678	268800
343	3815	29.405359939678	270200
343	3816	29.405359939678	271600
343	3817	29.405359939678	273000
343	3818	29.405359939678	274400
343	3819	29.405359939678	275800
343	3820	29.405359939678	277200
343	3821	29.405359939678	278600
343	3822	29.405359939678	280000
343	3823	29.405359939678	281400
343	3824	29.405359939678	282800
343	3825	29.405359939678	284200
343	3826	29.405359939678	285600
343	3827	29.405359939678	287000
343	3828	29.405359939678	288400
343	3829	29.405359939678	289800
343	3830	29.405359939678	291200
343	3831	29.405359939678	292600
343	3832	29.405359939678	294000
343	3833	29.405359939678	295400
343	3834	29.405359939678	296800
343	3835	29.405359939678	298200
343	3836	29.405359939678	299600
343	3960	30.228463939678	301000
343	3961	30.228463939678	302400
343	3962	30.228463939678	303800
343	4162	31.893156838979	305200
343	4163	31.893156838979	306600
343	4164	31.893156838979	308000
343	4200	32.030340838979	309400
343	4201	32.030340838979	310800
343	4202	32.030340838979	312200
343	4203	32.030340838979	313600
343	4204	32.030340838979	315000
343	4205	32.030340838979	316400
343	4229	32.167524838979	317800
343	4230	32.167524838979	319200
343	4231	32.167524838979	320600
343	4232	32.167524838979	322000
343	4233	32.167524838979	323400
343	4234	32.167524838979	324800
343	4235	32.167524838979	326200
343	4236	32.167524838979	327600
343	4237	32.167524838979	329000
343	4255	32.310756838979	330400
343	4256	32.310756838979	331800
343	4257	32.310756838979	333200
343	4500	33.556356838979	334600
343	4501	33.556356838979	336000
343	4502	33.556356838979	337400
343	4503	33.556356838979	338800
343	4504	33.556356838979	340200
343	4505	33.556356838979	341600
343	4506	33.556356838979	343000
343	4507	33.556356838979	344400
343	4508	33.556356838979	345800
343	4509	33.556356838979	347200
343	4510	33.556356838979	348600
343	4511	33.556356838979	350000
343	4512	33.556356838979	351400
343	4513	33.556356838979	352800
343	4514	33.556356838979	354200
343	4627	35.110756838979	355600
343	4628	35.110756838979	357000
343	4629	35.110756838979	358400
343	4630	35.110756838979	359800
343	4631	35.110756838979	361200
343	4632	35.110756838979	362600
343	4633	35.110756838979	364000
343	4634	35.110756838979	365400
343	4635	35.110756838979	366800
343	4857	37.528740838979	368200
343	4858	37.528740838979	369600
343	4859	37.528740838979	371000
343	4877	37.665924838979	372400
343	4878	37.665924838979	373800
343	4879	37.665924838979	375200
343	5001	41.385124838979	376600
343	5002	41.385124838979	378000
343	5003	41.385124838979	379400
343	5188	43.701892838979	380800
343	5189	43.701892838979	382200
343	5190	43.701892838979	383600
343	5191	43.701892838979	385000
343	5192	43.701892838979	386400
343	5193	43.701892838979	387800
343	5194	43.701892838979	389200
343	5195	43.701892838979	390600
343	5196	43.701892838979	392000
343	5197	43.701892838979	393400
343	5198	43.701892838979	394800
343	5199	43.701892838979	396200
343	5959	49.979604209019	397600
343	5960	49.979604209019	399000
343	5962	49.979604209019	400400
343	5963	49.979604209019	401800
343	5964	49.979604209019	403200
343	5965	49.979604209019	404600
343	5966	49.979604209019	406000
343	5967	49.979604209019	407400
343	5968	49.979604209019	408800
343	5969	49.979604209019	410200
343	5970	49.979604209019	411600
343	5972	49.979604209019	413000
343	5973	49.979604209019	414400
343	5974	49.979604209019	415800
343	5975	49.979604209019	417200
343	5976	49.979604209019	418600
343	5977	49.979604209019	420000
343	5978	49.979604209019	421400
343	5979	49.979604209019	422800
343	5980	49.979604209019	424200
343	5981	49.979604209019	425600
343	5982	49.979604209019	427000
343	5983	49.979604209019	428400
343	5984	49.979604209019	429800
343	5985	49.979604209019	431200
343	5986	49.979604209019	432600
343	5987	49.979604209019	434000
343	5988	49.979604209019	435400
343	5989	49.979604209019	436800
343	5990	49.979604209019	438200
343	5991	49.979604209019	439600
343	5992	49.979604209019	441000
343	5993	49.979604209019	442400
343	5994	49.979604209019	443800
343	5995	49.979604209019	445200
343	5996	49.979604209019	446600
343	5997	49.979604209019	448000
343	5998	49.979604209019	449400
343	5999	49.979604209019	450800
343	6000	49.979604209019	452200
343	6001	49.979604209019	453600
343	6002	49.979604209019	455000
343	6003	49.979604209019	456400
343	6004	49.979604209019	457800
343	6005	49.979604209019	459200
343	6006	49.979604209019	460600
343	6007	49.979604209019	462000
343	6193	63.055282949099	463400
343	6194	63.055282949099	464800
343	6195	63.055282949099	466200
343	6196	63.055282949099	467600
343	6197	63.055282949099	469000
343	6198	63.055282949099	470400
343	6229	63.192466949099	471800
343	6230	63.192466949099	473200
343	6231	63.192466949099	474600
343	6232	63.192466949099	476000
343	6484	64.643730949099	477400
343	6485	64.643730949099	478800
343	6486	64.643730949099	480200
343	6520	64.780914949099	481600
343	6521	64.780914949099	483000
343	6522	64.780914949099	484400
343	6523	64.780914949099	485800
343	6524	64.780914949099	487200
343	6525	64.780914949099	488600
343	6526	64.780914949099	490000
343	6527	64.780914949099	491400
343	6528	64.780914949099	492800
343	6529	64.780914949099	494200
343	6530	64.780914949099	495600
343	6531	64.780914949099	497000
343	6532	64.780914949099	498400
343	6533	64.780914949099	499800
343	6534	64.780914949099	501200
343	6834	66.015570949099	502600
343	6835	66.015570949099	504000
343	6836	66.015570949099	505400
343	6837	66.015570949099	506800
343	6838	66.015570949099	508200
343	6839	66.015570949099	509600
343	6840	66.015570949099	511000
343	6841	66.015570949099	512400
343	6842	66.015570949099	513800
343	6843	66.015570949099	515200
343	6844	66.015570949099	516600
343	6845	66.015570949099	518000
343	6846	66.015570949099	519400
343	6847	66.015570949099	520800
343	6848	66.015570949099	522200
343	6849	66.015570949099	523600
343	6850	66.015570949099	525000
343	6851	66.015570949099	526400
343	7149	66.838674949099	527800
343	7150	66.838674949099	529200
343	7151	66.838674949099	530600
343	7152	66.838674949099	532000
343	7153	66.838674949099	533400
343	7154	66.838674949099	534800
343	7155	66.838674949099	536200
343	7156	66.838674949099	537600
343	7157	66.838674949099	539000
343	7158	66.838674949099	540400
343	7159	66.838674949099	541800
343	7160	66.838674949099	543200
343	7161	66.838674949099	544600
343	7162	66.838674949099	546000
343	7163	66.838674949099	547400
343	7164	66.838674949099	548800
343	7165	66.838674949099	550200
343	7166	66.838674949099	551600
343	7476	68.490546949099	553000
343	7477	68.490546949099	554400
343	7478	68.490546949099	555800
343	7479	68.490546949099	557200
343	7480	68.490546949099	558600
343	7481	68.490546949099	560000
343	7482	68.490546949099	561400
343	7483	68.490546949099	562800
343	7484	68.490546949099	564200
343	7485	68.490546949099	565600
343	7486	68.490546949099	567000
343	7487	68.490546949099	568400
343	7488	68.490546949099	569800
343	7489	68.490546949099	571200
343	7490	68.490546949099	572600
343	7491	68.490546949099	574000
343	7492	68.490546949099	575400
343	7493	68.490546949099	576800
343	7693	69.182514949099	578200
343	7694	69.182514949099	579600
343	7695	69.182514949099	581000
343	7696	69.182514949099	582400
343	7697	69.182514949099	583800
343	7698	69.182514949099	585200
343	7699	69.182514949099	586600
343	7700	69.182514949099	588000
343	7701	69.182514949099	589400
343	7702	69.182514949099	590800
343	7703	69.182514949099	592200
343	7704	69.182514949099	593600
343	7705	69.182514949099	595000
343	7706	69.182514949099	596400
343	7707	69.182514949099	597800
343	7708	69.182514949099	599200
343	7709	69.182514949099	600600
343	7710	69.182514949099	602000
343	7711	69.182514949099	603400
343	7712	69.182514949099	604800
343	7713	69.182514949099	606200
343	7714	69.182514949099	607600
343	7715	69.182514949099	609000
343	7716	69.182514949099	610400
343	7739	69.319698949099	611800
343	7740	69.319698949099	613200
343	7741	69.319698949099	614600
343	7762	69.456882949099	616000
343	7763	69.456882949099	617400
343	7764	69.456882949099	618800
343	7949	71.177618949099	620200
343	7950	71.177618949099	621600
343	7951	71.177618949099	623000
343	7952	71.177618949099	624400
343	7953	71.177618949099	625800
343	7954	71.177618949099	627200
343	8002	72.526460339623	628600
343	8003	72.526460339623	630000
343	8004	72.526460339623	631400
343	8005	72.526460339623	632800
343	8006	72.526460339623	634200
343	8007	72.526460339623	635600
343	9030	88.389276339623	637000
343	9031	88.389276339623	638400
343	9033	88.389276339623	639800
343	9034	88.389276339623	641200
343	9035	88.389276339623	642600
343	9036	88.389276339623	644000
343	9037	88.389276339623	645400
343	9038	88.389276339623	646800
343	9039	88.389276339623	648200
343	9040	88.389276339623	649600
343	9041	88.389276339623	651000
343	9043	88.389276339623	652400
343	9044	88.389276339623	653800
343	9045	88.389276339623	655200
343	9046	88.389276339623	656600
343	9047	88.389276339623	658000
343	9048	88.389276339623	659400
343	9049	88.389276339623	660800
343	9050	88.389276339623	662200
343	9051	88.389276339623	663600
343	9052	88.389276339623	665000
343	9053	88.389276339623	666400
343	9054	88.389276339623	667800
343	9055	88.389276339623	669200
343	9056	88.389276339623	670600
343	9057	88.389276339623	672000
343	9058	88.389276339623	673400
343	9059	88.389276339623	674800
343	9060	88.389276339623	676200
343	9061	88.389276339623	677600
343	9062	88.389276339623	679000
343	9063	88.389276339623	680400
343	9064	88.389276339623	681800
343	9065	88.389276339623	683200
343	9066	88.389276339623	684600
343	9067	88.389276339623	686000
343	9068	88.389276339623	687400
343	9069	88.389276339623	688800
343	9070	88.389276339623	690200
343	9071	88.389276339623	691600
343	9072	88.389276339623	693000
343	9073	88.389276339623	694400
343	9074	88.389276339623	695800
343	9075	88.389276339623	697200
343	9076	88.389276339623	698600
343	9077	88.389276339623	700000
343	9078	88.389276339623	701400
