version 2
run General-0-20180703-21:54:57-5030
attr configname General
attr datetime 20180703-21:54:57
attr experiment General
attr inifile omnetpp.ini
attr iterationvars ""
attr iterationvars2 $repetition=0
attr measurement ""
attr network multi
attr processid 5030
attr repetition 0
attr replication #0
attr resultdir results
attr runnumber 0
attr seedset 0
param **.cli*.numTcpApps 0
param **.cli*.sctpApp[*].typename "\"SCTPClient\""
param **.cli*.tcpApp[*].typename "\"TCPBasicClientApp\""
param **.cli1.numSctpApps 1
param **.cli1.sctpApp[0].connectAddress "\"10.1.3.1\""
param **.cli1.sctpApp[0].connectPort 6666
param **.cli1.sctpApp[0].localAddress "\"10.1.1.1 10.2.1.1\""
param **.cli1.sctpApp[0].numRequestsPerSession 100000000
param **.cli1.sctpApp[0].outboundStreams 1
param **.cli1.sctpApp[0].primaryPath "\"10.1.3.1\""
param **.cli1.sctpApp[0].queueSize 100
param **.cli1.sctpApp[0].requestLength 1400
param **.cli1.sctpApp[0].startTime 1s
param **.cli1.sctpApp[0].stopTime 120s
param **.numUdpApps 0
param **.ppp[*].queue.frameCapacity 20
param **.ppp[*].queueType "\"DropTailQueue\""
param **.srv1.numSctpApps 1
param **.srv1.numTcpApps 0
param **.srv1.sctpApp[*].typename "\"SCTPServer\""
param **.srv1.sctpApp[0].bytesToPush 0
param **.srv1.sctpApp[0].localAddress "\"10.1.3.1 10.2.3.1\""
param **.srv1.sctpApp[0].localPort 6666
param **.srv1.sctpApp[0].numPacketsToReceivePerClient 0
param **.srv1.sctpApp[0].numPacketsToSendPerClient 0
param **.srv1.sctpApp[0].outboundStreams 1
param **.srv1.sctpApp[0].queueSize 0
param **.srv1.sctpApp[0].readingInterval 0
param **.srv1.tcpApp[*].typename "\"TCPSinkApp\""
param **.udpApp[*].typename "\"UDPApp\""
param multi.testTimeout 0s
param multi.testing false

vector 11  multi.cli1.ppp[0].queue  queueLength:vector  ETV
attr interpolationmode  sample-hold
attr title  "queue length, vector"
vector 12  multi.cli1.ppp[0].ppp  txState:vector  ETV
attr interpolationmode  sample-hold
attr title  "tx state, vector"
vector 22  multi.cli1.ppp[1].queue  queueLength:vector  ETV
attr interpolationmode  sample-hold
attr title  "queue length, vector"
vector 23  multi.cli1.ppp[1].ppp  txState:vector  ETV
attr interpolationmode  sample-hold
attr title  "tx state, vector"
vector 38  multi.srv1.ppp[0].queue  queueLength:vector  ETV
attr interpolationmode  sample-hold
attr title  "queue length, vector"
vector 39  multi.srv1.ppp[0].ppp  txState:vector  ETV
attr interpolationmode  sample-hold
attr title  "tx state, vector"
vector 49  multi.srv1.ppp[1].queue  queueLength:vector  ETV
attr interpolationmode  sample-hold
attr title  "queue length, vector"
vector 50  multi.srv1.ppp[1].ppp  txState:vector  ETV
attr interpolationmode  sample-hold
attr title  "tx state, vector"
vector 65  multi.router1.ppp[0].queue  queueLength:vector  ETV
attr interpolationmode  sample-hold
attr title  "queue length, vector"
vector 66  multi.router1.ppp[0].ppp  txState:vector  ETV
attr interpolationmode  sample-hold
attr title  "tx state, vector"
vector 76  multi.router1.ppp[1].queue  queueLength:vector  ETV
attr interpolationmode  sample-hold
attr title  "queue length, vector"
vector 77  multi.router1.ppp[1].ppp  txState:vector  ETV
attr interpolationmode  sample-hold
attr title  "tx state, vector"
vector 92  multi.router2.ppp[0].queue  queueLength:vector  ETV
attr interpolationmode  sample-hold
attr title  "queue length, vector"
vector 93  multi.router2.ppp[0].ppp  txState:vector  ETV
attr interpolationmode  sample-hold
attr title  "tx state, vector"
vector 103  multi.router2.ppp[1].queue  queueLength:vector  ETV
attr interpolationmode  sample-hold
attr title  "queue length, vector"
vector 104  multi.router2.ppp[1].ppp  txState:vector  ETV
attr interpolationmode  sample-hold
attr title  "tx state, vector"
vector 119  multi.router3.ppp[0].queue  queueLength:vector  ETV
attr interpolationmode  sample-hold
attr title  "queue length, vector"
vector 120  multi.router3.ppp[0].ppp  txState:vector  ETV
attr interpolationmode  sample-hold
attr title  "tx state, vector"
vector 130  multi.router3.ppp[1].queue  queueLength:vector  ETV
attr interpolationmode  sample-hold
attr title  "queue length, vector"
vector 131  multi.router3.ppp[1].ppp  txState:vector  ETV
attr interpolationmode  sample-hold
attr title  "tx state, vector"
vector 146  multi.router4.ppp[0].queue  queueLength:vector  ETV
attr interpolationmode  sample-hold
attr title  "queue length, vector"
vector 147  multi.router4.ppp[0].ppp  txState:vector  ETV
attr interpolationmode  sample-hold
attr title  "tx state, vector"
vector 157  multi.router4.ppp[1].queue  queueLength:vector  ETV
attr interpolationmode  sample-hold
attr title  "queue length, vector"
vector 158  multi.router4.ppp[1].ppp  txState:vector  ETV
attr interpolationmode  sample-hold
attr title  "tx state, vector"
vector 186  multi.srv1.sctp  "Throughput of Association 2"  ETV
vector 208  multi.cli1.sctp  "Throughput of Association 1"  ETV
vector 228  multi.cli1.sctp  "Fast Recovery State 1:10.1.3.1"  ETV
vector 8  multi.cli1.ppp[0].queue  rcvdPk:vector(packetBytes)  ETV
attr interpolationmode  none
attr title  "received packets, vector(packetBytes)"
vector 10  multi.cli1.ppp[0].queue  queueingTime:vector  ETV
attr interpolationmode  none
attr title  "queueing time, vector"
vector 17  multi.cli1.ppp[0].ppp  rcvdPkFromHL:vector(packetBytes)  ETV
attr interpolationmode  none
attr source  packetReceivedFromUpper
attr title  "packets received from higher layer, vector(packetBytes)"
vector 13  multi.cli1.ppp[0].ppp  txPk:vector(packetBytes)  ETV
attr interpolationmode  none
attr source  packetSentToLower
attr title  "packets transmitted, vector(packetBytes)"
vector 68  multi.router1.ppp[0].ppp  rxPkOk:vector(packetBytes)  ETV
attr interpolationmode  none
attr source  rxPkOk
attr title  "packets received OK, vector(packetBytes)"
vector 72  multi.router1.ppp[0].ppp  passedUpPk:vector(packetBytes)  ETV
attr interpolationmode  none
attr source  packetSentToUpper
attr title  "packets passed to higher layer, vector(packetBytes)"
vector 73  multi.router1.ppp[1].queue  rcvdPk:vector(packetBytes)  ETV
attr interpolationmode  none
attr title  "received packets, vector(packetBytes)"
vector 75  multi.router1.ppp[1].queue  queueingTime:vector  ETV
attr interpolationmode  none
attr title  "queueing time, vector"
vector 82  multi.router1.ppp[1].ppp  rcvdPkFromHL:vector(packetBytes)  ETV
attr interpolationmode  none
attr source  packetReceivedFromUpper
attr title  "packets received from higher layer, vector(packetBytes)"
vector 78  multi.router1.ppp[1].ppp  txPk:vector(packetBytes)  ETV
attr interpolationmode  none
attr source  packetSentToLower
attr title  "packets transmitted, vector(packetBytes)"
vector 95  multi.router2.ppp[0].ppp  rxPkOk:vector(packetBytes)  ETV
attr interpolationmode  none
attr source  rxPkOk
attr title  "packets received OK, vector(packetBytes)"
vector 99  multi.router2.ppp[0].ppp  passedUpPk:vector(packetBytes)  ETV
attr interpolationmode  none
attr source  packetSentToUpper
attr title  "packets passed to higher layer, vector(packetBytes)"
vector 100  multi.router2.ppp[1].queue  rcvdPk:vector(packetBytes)  ETV
attr interpolationmode  none
attr title  "received packets, vector(packetBytes)"
vector 102  multi.router2.ppp[1].queue  queueingTime:vector  ETV
attr interpolationmode  none
attr title  "queueing time, vector"
vector 109  multi.router2.ppp[1].ppp  rcvdPkFromHL:vector(packetBytes)  ETV
attr interpolationmode  none
attr source  packetReceivedFromUpper
attr title  "packets received from higher layer, vector(packetBytes)"
vector 105  multi.router2.ppp[1].ppp  txPk:vector(packetBytes)  ETV
attr interpolationmode  none
attr source  packetSentToLower
attr title  "packets transmitted, vector(packetBytes)"
vector 41  multi.srv1.ppp[0].ppp  rxPkOk:vector(packetBytes)  ETV
attr interpolationmode  none
attr source  rxPkOk
attr title  "packets received OK, vector(packetBytes)"
vector 45  multi.srv1.ppp[0].ppp  passedUpPk:vector(packetBytes)  ETV
attr interpolationmode  none
attr source  packetSentToUpper
attr title  "packets passed to higher layer, vector(packetBytes)"
vector 257  multi.srv1.sctp  "Throughput of Association 2"  ETV
vector 183  multi.srv1.sctp  "Peer Rwnd 2"  ETV
vector 277  multi.srv1.sctp  "Fast Recovery State 3:10.1.1.1"  ETV
vector 304  multi.srv1.sctp  "Fast Recovery State 3:10.2.1.1"  ETV
vector 35  multi.srv1.ppp[0].queue  rcvdPk:vector(packetBytes)  ETV
attr interpolationmode  none
attr title  "received packets, vector(packetBytes)"
vector 37  multi.srv1.ppp[0].queue  queueingTime:vector  ETV
attr interpolationmode  none
attr title  "queueing time, vector"
vector 44  multi.srv1.ppp[0].ppp  rcvdPkFromHL:vector(packetBytes)  ETV
attr interpolationmode  none
attr source  packetReceivedFromUpper
attr title  "packets received from higher layer, vector(packetBytes)"
vector 40  multi.srv1.ppp[0].ppp  txPk:vector(packetBytes)  ETV
attr interpolationmode  none
attr source  packetSentToLower
attr title  "packets transmitted, vector(packetBytes)"
vector 106  multi.router2.ppp[1].ppp  rxPkOk:vector(packetBytes)  ETV
attr interpolationmode  none
attr source  rxPkOk
attr title  "packets received OK, vector(packetBytes)"
vector 110  multi.router2.ppp[1].ppp  passedUpPk:vector(packetBytes)  ETV
attr interpolationmode  none
attr source  packetSentToUpper
attr title  "packets passed to higher layer, vector(packetBytes)"
vector 89  multi.router2.ppp[0].queue  rcvdPk:vector(packetBytes)  ETV
attr interpolationmode  none
attr title  "received packets, vector(packetBytes)"
vector 91  multi.router2.ppp[0].queue  queueingTime:vector  ETV
attr interpolationmode  none
attr title  "queueing time, vector"
vector 98  multi.router2.ppp[0].ppp  rcvdPkFromHL:vector(packetBytes)  ETV
attr interpolationmode  none
attr source  packetReceivedFromUpper
attr title  "packets received from higher layer, vector(packetBytes)"
vector 94  multi.router2.ppp[0].ppp  txPk:vector(packetBytes)  ETV
attr interpolationmode  none
attr source  packetSentToLower
attr title  "packets transmitted, vector(packetBytes)"
vector 79  multi.router1.ppp[1].ppp  rxPkOk:vector(packetBytes)  ETV
attr interpolationmode  none
attr source  rxPkOk
attr title  "packets received OK, vector(packetBytes)"
vector 83  multi.router1.ppp[1].ppp  passedUpPk:vector(packetBytes)  ETV
attr interpolationmode  none
attr source  packetSentToUpper
attr title  "packets passed to higher layer, vector(packetBytes)"
vector 62  multi.router1.ppp[0].queue  rcvdPk:vector(packetBytes)  ETV
attr interpolationmode  none
attr title  "received packets, vector(packetBytes)"
vector 64  multi.router1.ppp[0].queue  queueingTime:vector  ETV
attr interpolationmode  none
attr title  "queueing time, vector"
vector 71  multi.router1.ppp[0].ppp  rcvdPkFromHL:vector(packetBytes)  ETV
attr interpolationmode  none
attr source  packetReceivedFromUpper
attr title  "packets received from higher layer, vector(packetBytes)"
vector 67  multi.router1.ppp[0].ppp  txPk:vector(packetBytes)  ETV
attr interpolationmode  none
attr source  packetSentToLower
attr title  "packets transmitted, vector(packetBytes)"
vector 14  multi.cli1.ppp[0].ppp  rxPkOk:vector(packetBytes)  ETV
attr interpolationmode  none
attr source  rxPkOk
attr title  "packets received OK, vector(packetBytes)"
vector 18  multi.cli1.ppp[0].ppp  passedUpPk:vector(packetBytes)  ETV
attr interpolationmode  none
attr source  packetSentToUpper
attr title  "packets passed to higher layer, vector(packetBytes)"
vector 205  multi.cli1.sctp  "Peer Rwnd 1"  ETV
vector 331  multi.cli1.sctp  "Fast Recovery State 1:10.2.3.1"  ETV
vector 260  multi.srv1.sctp  "Slow Start Threshold 3:10.1.1.1"  ETV
vector 261  multi.srv1.sctp  "Congestion Window 3:10.1.1.1"  ETV
vector 262  multi.srv1.sctp  "Bandwidth 3:10.1.1.1"  ETV
vector 258  multi.srv1.sctp  "RTO 3:10.1.1.1"  ETV
vector 287  multi.srv1.sctp  "Slow Start Threshold 3:10.2.1.1"  ETV
vector 288  multi.srv1.sctp  "Congestion Window 3:10.2.1.1"  ETV
vector 289  multi.srv1.sctp  "Bandwidth 3:10.2.1.1"  ETV
vector 292  multi.srv1.sctp  "HB Sent 3:10.2.1.1"  ETV
vector 285  multi.srv1.sctp  "RTO 3:10.2.1.1"  ETV
vector 46  multi.srv1.ppp[1].queue  rcvdPk:vector(packetBytes)  ETV
attr interpolationmode  none
attr title  "received packets, vector(packetBytes)"
vector 48  multi.srv1.ppp[1].queue  queueingTime:vector  ETV
attr interpolationmode  none
attr title  "queueing time, vector"
vector 55  multi.srv1.ppp[1].ppp  rcvdPkFromHL:vector(packetBytes)  ETV
attr interpolationmode  none
attr source  packetReceivedFromUpper
attr title  "packets received from higher layer, vector(packetBytes)"
vector 51  multi.srv1.ppp[1].ppp  txPk:vector(packetBytes)  ETV
attr interpolationmode  none
attr source  packetSentToLower
attr title  "packets transmitted, vector(packetBytes)"
vector 160  multi.router4.ppp[1].ppp  rxPkOk:vector(packetBytes)  ETV
attr interpolationmode  none
attr source  rxPkOk
attr title  "packets received OK, vector(packetBytes)"
vector 164  multi.router4.ppp[1].ppp  passedUpPk:vector(packetBytes)  ETV
attr interpolationmode  none
attr source  packetSentToUpper
attr title  "packets passed to higher layer, vector(packetBytes)"
vector 143  multi.router4.ppp[0].queue  rcvdPk:vector(packetBytes)  ETV
attr interpolationmode  none
attr title  "received packets, vector(packetBytes)"
vector 145  multi.router4.ppp[0].queue  queueingTime:vector  ETV
attr interpolationmode  none
attr title  "queueing time, vector"
vector 152  multi.router4.ppp[0].ppp  rcvdPkFromHL:vector(packetBytes)  ETV
attr interpolationmode  none
attr source  packetReceivedFromUpper
attr title  "packets received from higher layer, vector(packetBytes)"
vector 148  multi.router4.ppp[0].ppp  txPk:vector(packetBytes)  ETV
attr interpolationmode  none
attr source  packetSentToLower
attr title  "packets transmitted, vector(packetBytes)"
vector 133  multi.router3.ppp[1].ppp  rxPkOk:vector(packetBytes)  ETV
attr interpolationmode  none
attr source  rxPkOk
attr title  "packets received OK, vector(packetBytes)"
vector 137  multi.router3.ppp[1].ppp  passedUpPk:vector(packetBytes)  ETV
attr interpolationmode  none
attr source  packetSentToUpper
attr title  "packets passed to higher layer, vector(packetBytes)"
vector 116  multi.router3.ppp[0].queue  rcvdPk:vector(packetBytes)  ETV
attr interpolationmode  none
attr title  "received packets, vector(packetBytes)"
vector 118  multi.router3.ppp[0].queue  queueingTime:vector  ETV
attr interpolationmode  none
attr title  "queueing time, vector"
vector 125  multi.router3.ppp[0].ppp  rcvdPkFromHL:vector(packetBytes)  ETV
attr interpolationmode  none
attr source  packetReceivedFromUpper
attr title  "packets received from higher layer, vector(packetBytes)"
vector 121  multi.router3.ppp[0].ppp  txPk:vector(packetBytes)  ETV
attr interpolationmode  none
attr source  packetSentToLower
attr title  "packets transmitted, vector(packetBytes)"
vector 211  multi.cli1.sctp  "Slow Start Threshold 1:10.1.3.1"  ETV
vector 212  multi.cli1.sctp  "Congestion Window 1:10.1.3.1"  ETV
vector 213  multi.cli1.sctp  "Bandwidth 1:10.1.3.1"  ETV
vector 209  multi.cli1.sctp  "RTO 1:10.1.3.1"  ETV
vector 314  multi.cli1.sctp  "Slow Start Threshold 1:10.2.3.1"  ETV
vector 315  multi.cli1.sctp  "Congestion Window 1:10.2.3.1"  ETV
vector 316  multi.cli1.sctp  "Bandwidth 1:10.2.3.1"  ETV
vector 319  multi.cli1.sctp  "HB Sent 1:10.2.3.1"  ETV
vector 312  multi.cli1.sctp  "RTO 1:10.2.3.1"  ETV
vector 1  multi.cli1.sctpApp[0]  sentPk:vector(packetBytes)  ETV
attr interpolationmode  none
attr source  sentPk
attr title  "packets sent, vector(packetBytes)"
vector 19  multi.cli1.ppp[1].queue  rcvdPk:vector(packetBytes)  ETV
attr interpolationmode  none
attr title  "received packets, vector(packetBytes)"
vector 21  multi.cli1.ppp[1].queue  queueingTime:vector  ETV
attr interpolationmode  none
attr title  "queueing time, vector"
vector 348  multi.cli1.sctp  "SendQueue of Association 1"  ETV
vector 214  multi.cli1.sctp  "TSN Sent 1:10.1.3.1"  ETV
vector 221  multi.cli1.sctp  "Outstanding Bytes 1:10.1.3.1"  ETV
vector 193  multi.cli1.sctp  "Outstanding Bytes 1:Total"  ETV
vector 220  multi.cli1.sctp  "Queued Sent Bytes 1:10.1.3.1"  ETV
vector 192  multi.cli1.sctp  "Queued Sent Bytes 1:Total"  ETV
vector 28  multi.cli1.ppp[1].ppp  rcvdPkFromHL:vector(packetBytes)  ETV
attr interpolationmode  none
attr source  packetReceivedFromUpper
attr title  "packets received from higher layer, vector(packetBytes)"
vector 24  multi.cli1.ppp[1].ppp  txPk:vector(packetBytes)  ETV
attr interpolationmode  none
attr source  packetSentToLower
attr title  "packets transmitted, vector(packetBytes)"
vector 25  multi.cli1.ppp[1].ppp  rxPkOk:vector(packetBytes)  ETV
attr interpolationmode  none
attr source  rxPkOk
attr title  "packets received OK, vector(packetBytes)"
vector 29  multi.cli1.ppp[1].ppp  passedUpPk:vector(packetBytes)  ETV
attr interpolationmode  none
attr source  packetSentToUpper
attr title  "packets passed to higher layer, vector(packetBytes)"
vector 320  multi.cli1.sctp  "HB ACK Sent 1:10.2.3.1"  ETV
vector 321  multi.cli1.sctp  "HB Received 1:10.2.3.1"  ETV
vector 122  multi.router3.ppp[0].ppp  rxPkOk:vector(packetBytes)  ETV
attr interpolationmode  none
attr source  rxPkOk
attr title  "packets received OK, vector(packetBytes)"
vector 126  multi.router3.ppp[0].ppp  passedUpPk:vector(packetBytes)  ETV
attr interpolationmode  none
attr source  packetSentToUpper
attr title  "packets passed to higher layer, vector(packetBytes)"
vector 127  multi.router3.ppp[1].queue  rcvdPk:vector(packetBytes)  ETV
attr interpolationmode  none
attr title  "received packets, vector(packetBytes)"
vector 129  multi.router3.ppp[1].queue  queueingTime:vector  ETV
attr interpolationmode  none
attr title  "queueing time, vector"
vector 136  multi.router3.ppp[1].ppp  rcvdPkFromHL:vector(packetBytes)  ETV
attr interpolationmode  none
attr source  packetReceivedFromUpper
attr title  "packets received from higher layer, vector(packetBytes)"
vector 132  multi.router3.ppp[1].ppp  txPk:vector(packetBytes)  ETV
attr interpolationmode  none
attr source  packetSentToLower
attr title  "packets transmitted, vector(packetBytes)"
vector 149  multi.router4.ppp[0].ppp  rxPkOk:vector(packetBytes)  ETV
attr interpolationmode  none
attr source  rxPkOk
attr title  "packets received OK, vector(packetBytes)"
vector 153  multi.router4.ppp[0].ppp  passedUpPk:vector(packetBytes)  ETV
attr interpolationmode  none
attr source  packetSentToUpper
attr title  "packets passed to higher layer, vector(packetBytes)"
vector 154  multi.router4.ppp[1].queue  rcvdPk:vector(packetBytes)  ETV
attr interpolationmode  none
attr title  "received packets, vector(packetBytes)"
vector 156  multi.router4.ppp[1].queue  queueingTime:vector  ETV
attr interpolationmode  none
attr title  "queueing time, vector"
vector 163  multi.router4.ppp[1].ppp  rcvdPkFromHL:vector(packetBytes)  ETV
attr interpolationmode  none
attr source  packetReceivedFromUpper
attr title  "packets received from higher layer, vector(packetBytes)"
vector 159  multi.router4.ppp[1].ppp  txPk:vector(packetBytes)  ETV
attr interpolationmode  none
attr source  packetSentToLower
attr title  "packets transmitted, vector(packetBytes)"
vector 52  multi.srv1.ppp[1].ppp  rxPkOk:vector(packetBytes)  ETV
attr interpolationmode  none
attr source  rxPkOk
attr title  "packets received OK, vector(packetBytes)"
vector 56  multi.srv1.ppp[1].ppp  passedUpPk:vector(packetBytes)  ETV
attr interpolationmode  none
attr source  packetSentToUpper
attr title  "packets passed to higher layer, vector(packetBytes)"
vector 293  multi.srv1.sctp  "HB ACK Sent 3:10.2.1.1"  ETV
vector 294  multi.srv1.sctp  "HB Received 3:10.2.1.1"  ETV
vector 295  multi.srv1.sctp  "HB ACK Received 3:10.2.1.1"  ETV
vector 286  multi.srv1.sctp  "RTT 3:10.2.1.1"  ETV
vector 322  multi.cli1.sctp  "HB ACK Received 1:10.2.3.1"  ETV
vector 313  multi.cli1.sctp  "RTT 1:10.2.3.1"  ETV
vector 264  multi.srv1.sctp  "TSN Received 3:10.1.1.1"  ETV
vector 339  multi.srv1.sctp  "Stream 0 Throughput"  ETV
vector 169  multi.srv1.sctp  "Queued Received Bytes 2:Total"  ETV
vector 165  multi.srv1.sctp  "Advertised Receiver Window 2"  ETV
vector 174  multi.srv1.sctp  "Number of Total Gap Blocks Stored 2"  ETV
vector 175  multi.srv1.sctp  "Number of Revokable Gap Blocks Stored 2"  ETV
vector 176  multi.srv1.sctp  "Number of Non-Revokable Gap Blocks Stored 2"  ETV
vector 177  multi.srv1.sctp  "Number of Duplicate TSNs Stored 2"  ETV
vector 181  multi.srv1.sctp  "Length of SACK Sent 2"  ETV
vector 178  multi.srv1.sctp  "Number of Revokable Gap Blocks Sent 2"  ETV
vector 179  multi.srv1.sctp  "Number of Non-Revokable Gap Blocks Sent 2"  ETV
vector 180  multi.srv1.sctp  "Number of Duplicate TSNs Sent 2"  ETV
vector 185  multi.srv1.sctp  "End to End Delay of Association 2"  ETV
vector 343  multi.srv1.sctpApp[0]  "App: Received Bytes of assoc 3"  ETV
vector 347  multi.cli1.sctp  "Number of Gap Blocks in Last SACK of Association 1"  ETV
vector 194  multi.cli1.sctp  "Number of Revokable Gap Blocks in SACK 1"  ETV
vector 195  multi.cli1.sctp  "Number of Non-Revokable Gap Blocks in SACK 1"  ETV
vector 231  multi.cli1.sctp  "TSN Acked CumAck 1:10.1.3.1"  ETV
vector 210  multi.cli1.sctp  "RTT 1:10.1.3.1"  ETV
vector 224  multi.cli1.sctp  "Number of Gap Acked Chunks in Last SACK 1:10.1.3.1"  ETV
vector 225  multi.cli1.sctp  "Number of Non-Revokable Gap Acked Chunks in Last SACK 1:10.1.3.1"  ETV
vector 226  multi.cli1.sctp  "Number of Gap Missed Chunks in Last SACK 1:10.1.3.1"  ETV
vector 327  multi.cli1.sctp  "Number of Gap Acked Chunks in Last SACK 1:10.2.3.1"  ETV
vector 328  multi.cli1.sctp  "Number of Non-Revokable Gap Acked Chunks in Last SACK 1:10.2.3.1"  ETV
vector 329  multi.cli1.sctp  "Number of Gap Missed Chunks in Last SACK 1:10.2.3.1"  ETV
vector 204  multi.cli1.sctp  "Arwnd in Last SACK 1"  ETV
vector 233  multi.cli1.sctp  "TSN PseudoCumAck 1:10.1.3.1"  ETV
vector 234  multi.cli1.sctp  "TSN RTXPseudoCumAck 1:10.1.3.1"  ETV
vector 227  multi.cli1.sctp  "Partial Bytes Acked 1:10.1.3.1"  ETV
vector 69  multi.router1.ppp[0].ppp  droppedPkBitError:vector(packetBytes)  ETV
attr interpolationmode  none
attr source  dropPkBitError
attr title  "packets dropped/bit error, vector(packetBytes)"
vector 232  multi.cli1.sctp  "TSN Acked GapAck 1:10.1.3.1"  ETV
vector 229  multi.cli1.sctp  "TSN Sent Fast RTX 1:10.1.3.1"  ETV
vector 265  multi.srv1.sctp  "HB Sent 3:10.1.1.1"  ETV
vector 217  multi.cli1.sctp  "HB ACK Sent 1:10.1.3.1"  ETV
vector 218  multi.cli1.sctp  "HB Received 1:10.1.3.1"  ETV
vector 268  multi.srv1.sctp  "HB ACK Received 3:10.1.1.1"  ETV
vector 259  multi.srv1.sctp  "RTT 3:10.1.1.1"  ETV
vector 96  multi.router2.ppp[0].ppp  droppedPkBitError:vector(packetBytes)  ETV
attr interpolationmode  none
attr source  dropPkBitError
attr title  "packets dropped/bit error, vector(packetBytes)"
211	103	1.039552	65535
211	402	1.184512	65535
211	479	1.640128	65535
211	534	1.977312	65535
211	603	2.194144	65535
211	674	2.468512	65535
211	745	2.74288	65535
211	816	3.017248	65535
211	887	3.291616	65535
211	958	3.565984	65535
211	1029	3.840352	65535
211	1100	4.11472	65535
211	1173	4.389088	65535
211	1345	4.663456	65535
211	1416	4.937824	65535
211	4016	14.541088	34090
211	5126	18.296512	34090
211	5574	19.668352	34090
211	5990	21.31456	34090
211	6406	22.960768	34090
211	6992	24.881344	34090
211	7477	26.80192	34090
211	8132	28.996864	34090
211	8756	31.466176	34090
211	19980	71.663232	34925
211	21206	75.423936	34925
211	21553	76.795776	34925
211	21969	78.441984	34925
211	22486	80.088192	34925
211	22971	82.008768	34925
211	23557	83.929344	34925
211	24111	86.124288	34925
211	24835	88.5936	34925
212	103	1.039552	8940
212	402	1.184512	10340
212	479	1.640128	14810
212	534	1.977312	19010
212	603	2.194144	23480
212	674	2.468512	27950
212	745	2.74288	32420
212	816	3.017248	36890
212	887	3.291616	41360
212	958	3.565984	45830
212	1029	3.840352	50300
212	1100	4.11472	54770
212	1173	4.389088	59240
212	1345	4.663456	63710
212	1416	4.937824	68180
212	4016	14.541088	34090
212	5126	18.296512	38560
212	5574	19.668352	43030
212	5990	21.31456	47500
212	6406	22.960768	51970
212	6992	24.881344	56440
212	7477	26.80192	60910
212	8132	28.996864	65380
212	8756	31.466176	69850
212	19980	71.663232	34925
212	21206	75.423936	39395
212	21553	76.795776	43865
212	21969	78.441984	48335
212	22486	80.088192	52805
212	22971	82.008768	57275
212	23557	83.929344	61745
212	24111	86.124288	66215
212	24835	88.5936	70685
213	103	1.039552	0.3725
213	402	1.184512	8.9214840379638
213	479	1.640128	9.1702786377709
213	534	1.977312	8.6174070716228
213	603	2.194144	10.64369900272
213	674	2.468512	11.544816191656
213	745	2.74288	13.391160677406
213	816	3.017248	12.539089055065
213	887	3.291616	14.058463630184
213	958	3.565984	13.491315866941
213	1029	3.840352	14.80718280836
213	1100	4.11472	13.457002457002
213	1173	4.389088	14.555282555283
213	1345	4.663456	12.915061828502
213	1416	4.937824	13.821204135415
213	4016	14.541088	2.7139558952313
213	5126	18.296512	3.1152043948942
213	5574	19.668352	3.6074782025486
213	5990	21.31456	4.0223558302989
213	6406	22.960768	4.4399829132849
213	6992	24.881344	4.7476446837147
213	7477	26.80192	5.0556108897742
213	8132	28.996864	5.2459279467223
213	8756	31.466176	5.3146161454767
213	19980	71.663232	2.0477865728525
213	21206	75.423936	2.5368665078241
213	21553	76.795776	2.9870616275111
213	21969	78.441984	3.3988467758948
213	22486	80.088192	3.7131706631039
213	22971	82.008768	4.0649396735273
213	23557	83.929344	4.4182468694097
213	24111	86.124288	4.6304195804196
213	24835	88.5936	4.897457216102
209	103	1.039552	3
209	402	1.184512	1
209	479	1.640128	1
209	534	1.977312	1.371453
209	674	2.468512	1.339888375
209	816	3.017248	1.666044578125
209	958	3.565984	1.853742693358
209	1100	4.11472	2.253376122313
209	1345	4.663456	2.788177556244
209	1554	5.48656	3.403544448628
209	1757	6.309664	4.061126207737
209	2033	7.407136	4.734436043157
209	2309	8.504608	5.096936496304
209	2759	9.876448	4.935476153172
209	3100	11.248288	5.043966173206
209	3514	12.894496	5.026130805941
209	3978	14.403904	4.772051758485
209	4435	16.050112	4.520502766143
209	4929	17.7016	4.385243133921
209	5505	19.393984	4.069413152342
209	5921	21.040192	3.529204565918
209	6337	22.6864	3.107275038394
209	6854	24.332608	2.902175152631
209	7270	25.978816	2.728329379081
209	7787	27.625024	2.889090797091
209	8203	29.271232	2.964324390251
209	8617	30.91744	2.981079298569
209	9133	32.563648	2.958933979072
209	9703	34.484224	3.220616426307
209	10205	36.40656	3.053609268981
209	10785	38.327136	3.217322532329
209	11272	40.247712	2.982221032267
209	11852	42.168288	3.103423265595
209	12339	44.088864	2.845908254167
209	12818	46.00944	2.956661394972
209	13471	48.204384	3.005539475032
209	14023	50.399328	3.012284606477
209	14676	52.594272	2.991169205034
209	15228	54.789216	2.952430185182
209	15881	56.98416	2.903336260118
209	16433	59.179104	2.848981113664
209	17086	61.374048	2.792871889002
209	17638	63.568992	2.737364963785
209	18361	65.763936	2.683987888996
209	18914	67.95888	2.633676562133
209	19587	70.153824	2.586949361314
209	20177	72.350912	2.546446468234
209	20814	74.554656	3.83733209802
209	21484	76.521408	4.101563164504
209	21969	78.441984	3.941014952994
209	22557	80.36256	3.515296471909
209	23042	82.283136	3.177509703952
209	23628	84.203712	3.015226303646
209	24111	86.124288	2.874520000208
209	24697	88.044864	2.752370738571
209	25176	89.96544	2.954880700041
209	25663	91.886016	2.755365840377
209	26243	93.806592	2.907011031211
209	26730	95.727168	2.675612092973
209	27380	97.647744	2.808825661846
209	27933	99.842688	2.877063264489
209	28586	102.037632	2.900527964208
209	29138	104.232576	2.893877174516
209	29811	106.42752	2.867670932078
209	30378	108.624224	2.831430368849
209	31031	110.819168	2.785832300205
209	31583	113.014112	2.737443308275
209	32135	115.209056	2.688734928937
209	32788	117.404	2.641339088467
209	33340	119.598944	2.596285721646
210	402	1.184512	0.14496
210	479	1.640128	0.600576
210	534	1.977312	0.7928
210	674	2.468512	0.4912
210	816	3.017248	0.823104
210	958	3.565984	0.823104
210	1100	4.11472	1.097472
210	1345	4.663456	1.37184
210	1554	5.48656	1.646208
210	1757	6.309664	1.920576
210	2033	7.407136	2.194944
210	2309	8.504608	2.194944
210	2759	9.876448	1.920576
210	3100	11.248288	2.194944
210	3514	12.894496	2.194944
210	3978	14.403904	2.058144
210	4435	16.050112	2.058144
210	4929	17.7016	0.960288
210	5505	19.393984	1.097472
210	5921	21.040192	1.37184
210	6337	22.6864	1.37184
210	6854	24.332608	1.646208
210	7270	25.978816	1.646208
210	7787	27.625024	1.920576
210	8203	29.271232	1.920576
210	8617	30.91744	1.920576
210	9133	32.563648	1.920576
210	9703	34.484224	2.194944
210	10205	36.40656	1.922336
210	10785	38.327136	2.196704
210	11272	40.247712	1.920576
210	11852	42.168288	2.194944
210	12339	44.088864	1.920576
210	12818	46.00944	2.194944
210	13471	48.204384	2.194944
210	14023	50.399328	2.194944
210	14676	52.594272	2.194944
210	15228	54.789216	2.194944
210	15881	56.98416	2.194944
210	16433	59.179104	2.194944
210	17086	61.374048	2.194944
210	17638	63.568992	2.194944
210	18361	65.763936	2.194944
210	18914	67.95888	2.194944
210	19587	70.153824	2.194944
210	20177	72.350912	2.197088
210	20814	74.554656	0.548736
210	21484	76.521408	1.097472
210	21969	78.441984	1.37184
210	22557	80.36256	1.646208
210	23042	82.283136	1.646208
210	23628	84.203712	1.920576
210	24111	86.124288	1.920576
210	24697	88.044864	1.920576
210	25176	89.96544	2.194944
210	25663	91.886016	1.920576
210	26243	93.806592	2.194944
210	26730	95.727168	1.920576
210	27380	97.647744	2.194944
210	27933	99.842688	2.194944
210	28586	102.037632	2.194944
210	29138	104.232576	2.194944
210	29811	106.42752	2.194944
210	30378	108.624224	2.196704
210	31031	110.819168	2.194944
210	31583	113.014112	2.194944
210	32135	115.209056	2.194944
210	32788	117.404	2.194944
210	33340	119.598944	2.194944
214	107	1.039552	1000
214	111	1.039552	1001
214	111	1.039552	1002
214	111	1.039552	1003
214	114	1.039552	1004
214	114	1.039552	1005
214	114	1.039552	1006
214	402	1.184512	1007
214	402	1.184512	1008
214	402	1.184512	1009
214	479	1.640128	1010
214	479	1.640128	1011
214	479	1.640128	1012
214	479	1.640128	1013
214	479	1.640128	1014
214	479	1.640128	1015
214	479	1.640128	1016
214	479	1.640128	1017
214	479	1.640128	1018
214	534	1.977312	1019
214	534	1.977312	1020
214	534	1.977312	1021
214	534	1.977312	1022
214	534	1.977312	1023
214	534	1.977312	1024
214	603	2.194144	1025
214	603	2.194144	1026
214	603	2.194144	1027
214	603	2.194144	1028
214	603	2.194144	1029
214	603	2.194144	1030
214	603	2.194144	1031
214	603	2.194144	1032
214	603	2.194144	1033
214	674	2.468512	1034
214	674	2.468512	1035
214	674	2.468512	1036
214	674	2.468512	1037
214	674	2.468512	1038
214	674	2.468512	1039
214	674	2.468512	1040
214	674	2.468512	1041
214	674	2.468512	1042
214	745	2.74288	1043
214	745	2.74288	1044
214	745	2.74288	1045
214	745	2.74288	1046
214	745	2.74288	1047
214	745	2.74288	1048
214	745	2.74288	1049
214	745	2.74288	1050
214	745	2.74288	1051
214	816	3.017248	1052
214	816	3.017248	1053
214	816	3.017248	1054
214	816	3.017248	1055
214	816	3.017248	1056
214	816	3.017248	1057
214	816	3.017248	1058
214	816	3.017248	1059
214	816	3.017248	1060
214	887	3.291616	1061
214	887	3.291616	1062
214	887	3.291616	1063
214	887	3.291616	1064
214	887	3.291616	1065
214	887	3.291616	1066
214	887	3.291616	1067
214	887	3.291616	1068
214	887	3.291616	1069
214	958	3.565984	1070
214	958	3.565984	1071
214	958	3.565984	1072
214	958	3.565984	1073
214	958	3.565984	1074
214	958	3.565984	1075
214	958	3.565984	1076
214	958	3.565984	1077
214	958	3.565984	1078
214	1029	3.840352	1079
214	1029	3.840352	1080
214	1029	3.840352	1081
214	1029	3.840352	1082
214	1029	3.840352	1083
214	1029	3.840352	1084
214	1029	3.840352	1085
214	1029	3.840352	1086
214	1029	3.840352	1087
214	1100	4.11472	1088
214	1100	4.11472	1089
214	1100	4.11472	1090
214	1100	4.11472	1091
214	1100	4.11472	1092
214	1100	4.11472	1093
214	1100	4.11472	1094
214	1100	4.11472	1095
214	1100	4.11472	1096
214	1100	4.11472	1097
214	1100	4.11472	1098
214	1100	4.11472	1099
214	1173	4.389088	1100
214	1173	4.389088	1101
214	1173	4.389088	1102
214	1173	4.389088	1103
214	1173	4.389088	1104
214	1173	4.389088	1105
214	1173	4.389088	1106
214	1173	4.389088	1107
214	1173	4.389088	1108
214	1345	4.663456	1109
214	1345	4.663456	1110
214	1345	4.663456	1111
214	1345	4.663456	1112
214	1345	4.663456	1113
214	1345	4.663456	1114
214	1345	4.663456	1115
214	1345	4.663456	1116
214	1345	4.663456	1117
214	1481	5.212192	1118
214	1481	5.212192	1119
214	1481	5.212192	1120
214	1481	5.212192	1121
214	1481	5.212192	1122
214	1481	5.212192	1123
214	1481	5.212192	1124
214	1481	5.212192	1125
214	1481	5.212192	1126
214	1481	5.212192	1127
214	1481	5.212192	1128
214	1481	5.212192	1129
214	1619	5.760928	1130
214	1619	5.760928	1131
214	1619	5.760928	1132
214	1619	5.760928	1133
214	1619	5.760928	1134
214	1619	5.760928	1135
214	1619	5.760928	1136
214	1619	5.760928	1137
214	1619	5.760928	1138
214	1619	5.760928	1139
214	1619	5.760928	1140
214	1619	5.760928	1141
214	1757	6.309664	1142
214	1757	6.309664	1143
214	1757	6.309664	1144
214	1757	6.309664	1145
214	1757	6.309664	1146
214	1757	6.309664	1147
214	1757	6.309664	1148
214	1757	6.309664	1149
214	1757	6.309664	1150
214	1757	6.309664	1151
214	1757	6.309664	1152
214	1757	6.309664	1153
214	1895	6.8584	1154
214	1895	6.8584	1155
214	1895	6.8584	1156
214	1895	6.8584	1157
214	1895	6.8584	1158
214	1895	6.8584	1159
214	1895	6.8584	1160
214	1895	6.8584	1161
214	1895	6.8584	1162
214	1895	6.8584	1163
214	1895	6.8584	1164
214	1895	6.8584	1165
214	2033	7.407136	1166
214	2033	7.407136	1167
214	2033	7.407136	1168
214	2033	7.407136	1169
214	2033	7.407136	1170
214	2033	7.407136	1171
214	2033	7.407136	1172
214	2033	7.407136	1173
214	2033	7.407136	1174
214	2033	7.407136	1175
214	2033	7.407136	1176
214	2033	7.407136	1177
214	2171	7.955872	1178
214	2171	7.955872	1179
214	2171	7.955872	1180
214	2171	7.955872	1181
214	2171	7.955872	1182
214	2171	7.955872	1183
214	2171	7.955872	1184
214	2171	7.955872	1185
214	2171	7.955872	1186
214	2171	7.955872	1187
214	2171	7.955872	1188
214	2171	7.955872	1189
214	2309	8.504608	1190
214	2309	8.504608	1191
214	2309	8.504608	1192
214	2309	8.504608	1193
214	2309	8.504608	1194
214	2309	8.504608	1195
214	2309	8.504608	1196
214	2309	8.504608	1197
214	2309	8.504608	1198
214	2309	8.504608	1199
214	2309	8.504608	1200
214	2309	8.504608	1201
214	2548	9.053344	1202
214	2548	9.053344	1203
214	2548	9.053344	1204
214	2548	9.053344	1205
214	2548	9.053344	1206
214	2548	9.053344	1207
214	2548	9.053344	1208
214	2548	9.053344	1209
214	2548	9.053344	1210
214	2548	9.053344	1211
214	2548	9.053344	1212
214	2548	9.053344	1213
214	2686	9.60208	1214
214	2686	9.60208	1215
214	2686	9.60208	1216
214	2686	9.60208	1217
214	2686	9.60208	1218
214	2686	9.60208	1219
214	2686	9.60208	1220
214	2686	9.60208	1221
214	2686	9.60208	1222
214	2686	9.60208	1223
214	2686	9.60208	1224
214	2686	9.60208	1225
214	2824	10.150816	1226
214	2824	10.150816	1227
214	2824	10.150816	1228
214	2824	10.150816	1229
214	2824	10.150816	1230
214	2824	10.150816	1231
214	2824	10.150816	1232
214	2824	10.150816	1233
214	2824	10.150816	1234
214	2824	10.150816	1235
214	2824	10.150816	1236
214	2824	10.150816	1237
214	2962	10.699552	1238
214	2962	10.699552	1239
214	2962	10.699552	1240
214	2962	10.699552	1241
214	2962	10.699552	1242
214	2962	10.699552	1243
214	2962	10.699552	1244
214	2962	10.699552	1245
214	2962	10.699552	1246
214	2962	10.699552	1247
214	2962	10.699552	1248
214	2962	10.699552	1249
214	3100	11.248288	1250
214	3100	11.248288	1251
214	3100	11.248288	1252
214	3100	11.248288	1253
214	3100	11.248288	1254
214	3100	11.248288	1255
214	3100	11.248288	1256
214	3100	11.248288	1257
214	3100	11.248288	1258
214	3100	11.248288	1259
214	3100	11.248288	1260
214	3100	11.248288	1261
214	3238	11.797024	1262
214	3238	11.797024	1263
214	3238	11.797024	1264
214	3238	11.797024	1265
214	3238	11.797024	1266
214	3238	11.797024	1267
214	3238	11.797024	1268
214	3238	11.797024	1269
214	3238	11.797024	1270
214	3238	11.797024	1271
214	3238	11.797024	1272
214	3238	11.797024	1273
214	3376	12.34576	1274
214	3376	12.34576	1275
214	3376	12.34576	1276
214	3376	12.34576	1277
214	3376	12.34576	1278
214	3376	12.34576	1279
214	3376	12.34576	1280
214	3376	12.34576	1281
214	3376	12.34576	1282
214	3376	12.34576	1283
214	3376	12.34576	1284
214	3376	12.34576	1285
214	3514	12.894496	1286
214	3514	12.894496	1287
214	3514	12.894496	1288
214	3514	12.894496	1289
214	3514	12.894496	1290
214	3514	12.894496	1291
214	3514	12.894496	1292
214	3514	12.894496	1293
214	3514	12.894496	1294
214	3514	12.894496	1295
214	3514	12.894496	1296
214	3514	12.894496	1297
214	3652	13.443232	1298
214	3652	13.443232	1299
214	3652	13.443232	1300
214	3652	13.443232	1301
214	3652	13.443232	1302
214	3652	13.443232	1303
214	3652	13.443232	1304
214	3652	13.443232	1305
214	3652	13.443232	1306
214	3652	13.443232	1307
214	3652	13.443232	1308
214	3652	13.443232	1309
214	3883	13.991968	1310
214	3883	13.991968	1311
214	3883	13.991968	1312
214	3883	13.991968	1313
214	3883	13.991968	1314
214	3883	13.991968	1315
214	3883	13.991968	1316
214	3883	13.991968	1317
214	3883	13.991968	1318
214	3883	13.991968	1319
214	3883	13.991968	1320
214	3883	13.991968	1321
214	4560	16.324096	1322
214	4560	16.324096	1323
214	4560	16.324096	1324
214	4578	16.327616	1325
214	4578	16.327616	1326
214	4578	16.327616	1327
214	4578	16.327616	1328
214	4578	16.327616	1329
214	4578	16.327616	1330
214	4578	16.327616	1331
214	4578	16.327616	1332
214	4578	16.327616	1333
214	4578	16.327616	1334
214	4578	16.327616	1335
214	4578	16.327616	1336
214	4641	16.741312	1337
214	4641	16.741312	1338
214	4641	16.741312	1339
214	4641	16.741312	1340
214	4641	16.741312	1341
214	4641	16.741312	1342
214	4641	16.741312	1343
214	4641	16.741312	1344
214	4641	16.741312	1345
214	4641	16.741312	1346
214	4641	16.741312	1347
214	4641	16.741312	1348
214	4687	16.878496	1349
214	4687	16.878496	1350
214	4687	16.878496	1351
214	4729	17.01568	1352
214	4729	17.01568	1353
214	4729	17.01568	1354
214	4769	17.152864	1355
214	4769	17.152864	1356
214	4769	17.152864	1357
214	4809	17.290048	1358
214	4809	17.290048	1359
214	4809	17.290048	1360
214	4849	17.427232	1361
214	4849	17.427232	1362
214	4849	17.427232	1363
214	4889	17.564416	1364
214	4889	17.564416	1365
214	4889	17.564416	1366
214	5053	18.022144	1367
214	5053	18.022144	1368
214	5053	18.022144	1369
214	5053	18.022144	1370
214	5053	18.022144	1371
214	5053	18.022144	1372
214	5053	18.022144	1373
214	5053	18.022144	1374
214	5053	18.022144	1375
214	5053	18.022144	1376
214	5053	18.022144	1377
214	5053	18.022144	1378
214	5126	18.296512	1379
214	5126	18.296512	1380
214	5126	18.296512	1381
214	5126	18.296512	1382
214	5126	18.296512	1383
214	5126	18.296512	1384
214	5126	18.296512	1385
214	5126	18.296512	1386
214	5126	18.296512	1387
214	5197	18.57088	1388
214	5197	18.57088	1389
214	5197	18.57088	1390
214	5197	18.57088	1391
214	5197	18.57088	1392
214	5197	18.57088	1393
214	5266	18.845248	1394
214	5266	18.845248	1395
214	5266	18.845248	1396
214	5266	18.845248	1397
214	5266	18.845248	1398
214	5266	18.845248	1399
214	5335	19.119616	1400
214	5335	19.119616	1401
214	5335	19.119616	1402
214	5335	19.119616	1403
214	5335	19.119616	1404
214	5335	19.119616	1405
214	5505	19.393984	1406
214	5505	19.393984	1407
214	5505	19.393984	1408
214	5505	19.393984	1409
214	5505	19.393984	1410
214	5505	19.393984	1411
214	5574	19.668352	1412
214	5574	19.668352	1413
214	5574	19.668352	1414
214	5574	19.668352	1415
214	5574	19.668352	1416
214	5574	19.668352	1417
214	5574	19.668352	1418
214	5574	19.668352	1419
214	5574	19.668352	1420
214	5645	19.94272	1421
214	5645	19.94272	1422
214	5645	19.94272	1423
214	5645	19.94272	1424
214	5645	19.94272	1425
214	5645	19.94272	1426
214	5714	20.217088	1427
214	5714	20.217088	1428
214	5714	20.217088	1429
214	5714	20.217088	1430
214	5714	20.217088	1431
214	5714	20.217088	1432
214	5783	20.491456	1433
214	5783	20.491456	1434
214	5783	20.491456	1435
214	5783	20.491456	1436
214	5783	20.491456	1437
214	5783	20.491456	1438
214	5852	20.765824	1439
214	5852	20.765824	1440
214	5852	20.765824	1441
214	5852	20.765824	1442
214	5852	20.765824	1443
214	5852	20.765824	1444
214	5921	21.040192	1445
214	5921	21.040192	1446
214	5921	21.040192	1447
214	5921	21.040192	1448
214	5921	21.040192	1449
214	5921	21.040192	1450
214	5990	21.31456	1451
214	5990	21.31456	1452
214	5990	21.31456	1453
214	5990	21.31456	1454
214	5990	21.31456	1455
214	5990	21.31456	1456
214	5990	21.31456	1457
214	5990	21.31456	1458
214	5990	21.31456	1459
214	6061	21.588928	1460
214	6061	21.588928	1461
214	6061	21.588928	1462
214	6061	21.588928	1463
214	6061	21.588928	1464
214	6061	21.588928	1465
214	6130	21.863296	1466
214	6130	21.863296	1467
214	6130	21.863296	1468
214	6130	21.863296	1469
214	6130	21.863296	1470
214	6130	21.863296	1471
214	6199	22.137664	1472
214	6199	22.137664	1473
214	6199	22.137664	1474
214	6199	22.137664	1475
214	6199	22.137664	1476
214	6199	22.137664	1477
214	6268	22.412032	1478
214	6268	22.412032	1479
214	6268	22.412032	1480
214	6268	22.412032	1481
214	6268	22.412032	1482
214	6268	22.412032	1483
214	6337	22.6864	1484
214	6337	22.6864	1485
214	6337	22.6864	1486
214	6337	22.6864	1487
214	6337	22.6864	1488
214	6337	22.6864	1489
214	6406	22.960768	1490
214	6406	22.960768	1491
214	6406	22.960768	1492
214	6406	22.960768	1493
214	6406	22.960768	1494
214	6406	22.960768	1495
214	6406	22.960768	1496
214	6406	22.960768	1497
214	6406	22.960768	1498
214	6477	23.235136	1499
214	6477	23.235136	1500
214	6477	23.235136	1501
214	6477	23.235136	1502
214	6477	23.235136	1503
214	6477	23.235136	1504
214	6647	23.509504	1505
214	6647	23.509504	1506
214	6647	23.509504	1507
214	6647	23.509504	1508
214	6647	23.509504	1509
214	6647	23.509504	1510
214	6716	23.783872	1511
214	6716	23.783872	1512
214	6716	23.783872	1513
214	6716	23.783872	1514
214	6716	23.783872	1515
214	6716	23.783872	1516
214	6785	24.05824	1517
214	6785	24.05824	1518
214	6785	24.05824	1519
214	6785	24.05824	1520
214	6785	24.05824	1521
214	6785	24.05824	1522
214	6854	24.332608	1523
214	6854	24.332608	1524
214	6854	24.332608	1525
214	6854	24.332608	1526
214	6854	24.332608	1527
214	6854	24.332608	1528
214	6923	24.606976	1529
214	6923	24.606976	1530
214	6923	24.606976	1531
214	6923	24.606976	1532
214	6923	24.606976	1533
214	6923	24.606976	1534
214	6992	24.881344	1535
214	6992	24.881344	1536
214	6992	24.881344	1537
214	6992	24.881344	1538
214	6992	24.881344	1539
214	6992	24.881344	1540
214	6992	24.881344	1541
214	6992	24.881344	1542
214	6992	24.881344	1543
214	7063	25.155712	1544
214	7063	25.155712	1545
214	7063	25.155712	1546
214	7063	25.155712	1547
214	7063	25.155712	1548
214	7063	25.155712	1549
214	7132	25.43008	1550
214	7132	25.43008	1551
214	7132	25.43008	1552
214	7132	25.43008	1553
214	7132	25.43008	1554
214	7132	25.43008	1555
214	7201	25.704448	1556
214	7201	25.704448	1557
214	7201	25.704448	1558
214	7201	25.704448	1559
214	7201	25.704448	1560
214	7201	25.704448	1561
214	7270	25.978816	1562
214	7270	25.978816	1563
214	7270	25.978816	1564
214	7270	25.978816	1565
214	7270	25.978816	1566
214	7270	25.978816	1567
214	7339	26.253184	1568
214	7339	26.253184	1569
214	7339	26.253184	1570
214	7339	26.253184	1571
214	7339	26.253184	1572
214	7339	26.253184	1573
214	7408	26.527552	1574
214	7408	26.527552	1575
214	7408	26.527552	1576
214	7408	26.527552	1577
214	7408	26.527552	1578
214	7408	26.527552	1579
214	7477	26.80192	1580
214	7477	26.80192	1581
214	7477	26.80192	1582
214	7477	26.80192	1583
214	7477	26.80192	1584
214	7477	26.80192	1585
214	7477	26.80192	1586
214	7477	26.80192	1587
214	7477	26.80192	1588
214	7548	27.076288	1589
214	7548	27.076288	1590
214	7548	27.076288	1591
214	7548	27.076288	1592
214	7548	27.076288	1593
214	7548	27.076288	1594
214	7617	27.350656	1595
214	7617	27.350656	1596
214	7617	27.350656	1597
214	7617	27.350656	1598
214	7617	27.350656	1599
214	7617	27.350656	1600
214	7787	27.625024	1601
214	7787	27.625024	1602
214	7787	27.625024	1603
214	7787	27.625024	1604
214	7787	27.625024	1605
214	7787	27.625024	1606
214	7856	27.899392	1607
214	7856	27.899392	1608
214	7856	27.899392	1609
214	7856	27.899392	1610
214	7856	27.899392	1611
214	7856	27.899392	1612
214	7925	28.17376	1613
214	7925	28.17376	1614
214	7925	28.17376	1615
214	7925	28.17376	1616
214	7925	28.17376	1617
214	7925	28.17376	1618
214	7994	28.448128	1619
214	7994	28.448128	1620
214	7994	28.448128	1621
214	7994	28.448128	1622
214	7994	28.448128	1623
214	7994	28.448128	1624
214	8063	28.722496	1625
214	8063	28.722496	1626
214	8063	28.722496	1627
214	8063	28.722496	1628
214	8063	28.722496	1629
214	8063	28.722496	1630
214	8132	28.996864	1631
214	8132	28.996864	1632
214	8132	28.996864	1633
214	8132	28.996864	1634
214	8132	28.996864	1635
214	8132	28.996864	1636
214	8132	28.996864	1637
214	8132	28.996864	1638
214	8132	28.996864	1639
214	8268	29.5456	1640
214	8268	29.5456	1641
214	8268	29.5456	1642
214	8268	29.5456	1643
214	8268	29.5456	1644
214	8268	29.5456	1645
214	8268	29.5456	1646
214	8268	29.5456	1647
214	8268	29.5456	1648
214	8268	29.5456	1649
214	8268	29.5456	1650
214	8268	29.5456	1651
214	8406	30.094336	1652
214	8406	30.094336	1653
214	8406	30.094336	1654
214	8406	30.094336	1655
214	8406	30.094336	1656
214	8406	30.094336	1657
214	8406	30.094336	1658
214	8406	30.094336	1659
214	8406	30.094336	1660
214	8406	30.094336	1661
214	8406	30.094336	1662
214	8406	30.094336	1663
214	8544	30.643072	1664
214	8544	30.643072	1665
214	8544	30.643072	1666
214	8544	30.643072	1667
214	8544	30.643072	1668
214	8544	30.643072	1669
214	8544	30.643072	1670
214	8544	30.643072	1671
214	8544	30.643072	1672
214	8544	30.643072	1673
214	8544	30.643072	1674
214	8544	30.643072	1675
214	8683	31.191808	1676
214	8683	31.191808	1677
214	8683	31.191808	1678
214	8683	31.191808	1679
214	8683	31.191808	1680
214	8683	31.191808	1681
214	8683	31.191808	1682
214	8683	31.191808	1683
214	8683	31.191808	1684
214	8683	31.191808	1685
214	8683	31.191808	1686
214	8683	31.191808	1687
214	8821	31.740544	1688
214	8821	31.740544	1689
214	8821	31.740544	1690
214	8821	31.740544	1691
214	8821	31.740544	1692
214	8821	31.740544	1693
214	8821	31.740544	1694
214	8821	31.740544	1695
214	8821	31.740544	1696
214	8821	31.740544	1697
214	8821	31.740544	1698
214	8821	31.740544	1699
214	8959	32.28928	1700
214	8959	32.28928	1701
214	8959	32.28928	1702
214	8959	32.28928	1703
214	8959	32.28928	1704
214	8959	32.28928	1705
214	8959	32.28928	1706
214	8959	32.28928	1707
214	8959	32.28928	1708
214	8959	32.28928	1709
214	8959	32.28928	1710
214	8959	32.28928	1711
214	9198	32.838016	1712
214	9198	32.838016	1713
214	9198	32.838016	1714
214	9198	32.838016	1715
214	9198	32.838016	1716
214	9198	32.838016	1717
214	9198	32.838016	1718
214	9198	32.838016	1719
214	9198	32.838016	1720
214	9198	32.838016	1721
214	9198	32.838016	1722
214	9198	32.838016	1723
214	9336	33.386752	1724
214	9336	33.386752	1725
214	9336	33.386752	1726
214	9336	33.386752	1727
214	9336	33.386752	1728
214	9336	33.386752	1729
214	9336	33.386752	1730
214	9336	33.386752	1731
214	9336	33.386752	1732
214	9336	33.386752	1733
214	9336	33.386752	1734
214	9336	33.386752	1735
214	9474	33.935488	1736
214	9474	33.935488	1737
214	9474	33.935488	1738
214	9474	33.935488	1739
214	9474	33.935488	1740
214	9474	33.935488	1741
214	9474	33.935488	1742
214	9474	33.935488	1743
214	9474	33.935488	1744
214	9474	33.935488	1745
214	9474	33.935488	1746
214	9474	33.935488	1747
214	9703	34.484224	1748
214	9703	34.484224	1749
214	9703	34.484224	1750
214	9703	34.484224	1751
214	9703	34.484224	1752
214	9703	34.484224	1753
214	9703	34.484224	1754
214	9703	34.484224	1755
214	9703	34.484224	1756
214	9703	34.484224	1757
214	9703	34.484224	1758
214	9703	34.484224	1759
214	9841	35.03296	1760
214	9841	35.03296	1761
214	9841	35.03296	1762
214	9841	35.03296	1763
214	9841	35.03296	1764
214	9841	35.03296	1765
214	9841	35.03296	1766
214	9841	35.03296	1767
214	9841	35.03296	1768
214	9841	35.03296	1769
214	9841	35.03296	1770
214	9841	35.03296	1771
214	9979	35.581696	1772
214	9979	35.581696	1773
214	9979	35.581696	1774
214	9979	35.581696	1775
214	9979	35.581696	1776
214	9979	35.581696	1777
214	9979	35.581696	1778
214	9979	35.581696	1779
214	9979	35.581696	1780
214	9979	35.581696	1781
214	9979	35.581696	1782
214	9979	35.581696	1783
214	10132	36.130432	1784
214	10132	36.130432	1785
214	10132	36.130432	1786
214	10132	36.130432	1787
214	10132	36.130432	1788
214	10132	36.130432	1789
214	10132	36.130432	1790
214	10132	36.130432	1791
214	10132	36.130432	1792
214	10132	36.130432	1793
214	10132	36.130432	1794
214	10132	36.130432	1795
214	10270	36.680928	1796
214	10270	36.680928	1797
214	10270	36.680928	1798
214	10270	36.680928	1799
214	10270	36.680928	1800
214	10270	36.680928	1801
214	10270	36.680928	1802
214	10270	36.680928	1803
214	10270	36.680928	1804
214	10270	36.680928	1805
214	10270	36.680928	1806
214	10270	36.680928	1807
214	10509	37.229664	1808
214	10509	37.229664	1809
214	10509	37.229664	1810
214	10509	37.229664	1811
214	10509	37.229664	1812
214	10509	37.229664	1813
214	10509	37.229664	1814
214	10509	37.229664	1815
214	10509	37.229664	1816
214	10509	37.229664	1817
214	10509	37.229664	1818
214	10509	37.229664	1819
214	10647	37.7784	1820
214	10647	37.7784	1821
214	10647	37.7784	1822
214	10647	37.7784	1823
214	10647	37.7784	1824
214	10647	37.7784	1825
214	10647	37.7784	1826
214	10647	37.7784	1827
214	10647	37.7784	1828
214	10647	37.7784	1829
214	10647	37.7784	1830
214	10647	37.7784	1831
214	10785	38.327136	1832
214	10785	38.327136	1833
214	10785	38.327136	1834
214	10785	38.327136	1835
214	10785	38.327136	1836
214	10785	38.327136	1837
214	10785	38.327136	1838
214	10785	38.327136	1839
214	10785	38.327136	1840
214	10785	38.327136	1841
214	10785	38.327136	1842
214	10785	38.327136	1843
214	10923	38.875872	1844
214	10923	38.875872	1845
214	10923	38.875872	1846
214	10923	38.875872	1847
214	10923	38.875872	1848
214	10923	38.875872	1849
214	10923	38.875872	1850
214	10923	38.875872	1851
214	10923	38.875872	1852
214	10923	38.875872	1853
214	10923	38.875872	1854
214	10923	38.875872	1855
214	11061	39.424608	1856
214	11061	39.424608	1857
214	11061	39.424608	1858
214	11061	39.424608	1859
214	11061	39.424608	1860
214	11061	39.424608	1861
214	11061	39.424608	1862
214	11061	39.424608	1863
214	11061	39.424608	1864
214	11061	39.424608	1865
214	11061	39.424608	1866
214	11061	39.424608	1867
214	11199	39.973344	1868
214	11199	39.973344	1869
214	11199	39.973344	1870
214	11199	39.973344	1871
214	11199	39.973344	1872
214	11199	39.973344	1873
214	11199	39.973344	1874
214	11199	39.973344	1875
214	11199	39.973344	1876
214	11199	39.973344	1877
214	11199	39.973344	1878
214	11199	39.973344	1879
214	11337	40.52208	1880
214	11337	40.52208	1881
214	11337	40.52208	1882
214	11337	40.52208	1883
214	11337	40.52208	1884
214	11337	40.52208	1885
214	11337	40.52208	1886
214	11337	40.52208	1887
214	11337	40.52208	1888
214	11337	40.52208	1889
214	11337	40.52208	1890
214	11337	40.52208	1891
214	11475	41.070816	1892
214	11475	41.070816	1893
214	11475	41.070816	1894
214	11475	41.070816	1895
214	11475	41.070816	1896
214	11475	41.070816	1897
214	11475	41.070816	1898
214	11475	41.070816	1899
214	11475	41.070816	1900
214	11475	41.070816	1901
214	11475	41.070816	1902
214	11475	41.070816	1903
214	11714	41.619552	1904
214	11714	41.619552	1905
214	11714	41.619552	1906
214	11714	41.619552	1907
214	11714	41.619552	1908
214	11714	41.619552	1909
214	11714	41.619552	1910
214	11714	41.619552	1911
214	11714	41.619552	1912
214	11714	41.619552	1913
214	11714	41.619552	1914
214	11714	41.619552	1915
214	11852	42.168288	1916
214	11852	42.168288	1917
214	11852	42.168288	1918
214	11852	42.168288	1919
214	11852	42.168288	1920
214	11852	42.168288	1921
214	11852	42.168288	1922
214	11852	42.168288	1923
214	11852	42.168288	1924
214	11852	42.168288	1925
214	11852	42.168288	1926
214	11852	42.168288	1927
214	11990	42.717024	1928
214	11990	42.717024	1929
214	11990	42.717024	1930
214	11990	42.717024	1931
214	11990	42.717024	1932
214	11990	42.717024	1933
214	11990	42.717024	1934
214	11990	42.717024	1935
214	11990	42.717024	1936
214	11990	42.717024	1937
214	11990	42.717024	1938
214	11990	42.717024	1939
214	12128	43.26576	1940
214	12128	43.26576	1941
214	12128	43.26576	1942
214	12128	43.26576	1943
214	12128	43.26576	1944
214	12128	43.26576	1945
214	12128	43.26576	1946
214	12128	43.26576	1947
214	12128	43.26576	1948
214	12128	43.26576	1949
214	12128	43.26576	1950
214	12128	43.26576	1951
214	12266	43.814496	1952
214	12266	43.814496	1953
214	12266	43.814496	1954
214	12266	43.814496	1955
214	12266	43.814496	1956
214	12266	43.814496	1957
214	12266	43.814496	1958
214	12266	43.814496	1959
214	12266	43.814496	1960
214	12266	43.814496	1961
214	12266	43.814496	1962
214	12266	43.814496	1963
214	12404	44.363232	1964
214	12404	44.363232	1965
214	12404	44.363232	1966
214	12404	44.363232	1967
214	12404	44.363232	1968
214	12404	44.363232	1969
214	12404	44.363232	1970
214	12404	44.363232	1971
214	12404	44.363232	1972
214	12404	44.363232	1973
214	12404	44.363232	1974
214	12404	44.363232	1975
214	12542	44.911968	1976
214	12542	44.911968	1977
214	12542	44.911968	1978
214	12542	44.911968	1979
214	12542	44.911968	1980
214	12542	44.911968	1981
214	12542	44.911968	1982
214	12542	44.911968	1983
214	12542	44.911968	1984
214	12542	44.911968	1985
214	12542	44.911968	1986
214	12542	44.911968	1987
214	12680	45.460704	1988
214	12680	45.460704	1989
214	12680	45.460704	1990
214	12680	45.460704	1991
214	12680	45.460704	1992
214	12680	45.460704	1993
214	12680	45.460704	1994
214	12680	45.460704	1995
214	12680	45.460704	1996
214	12680	45.460704	1997
214	12680	45.460704	1998
214	12680	45.460704	1999
214	12818	46.00944	2000
214	12818	46.00944	2001
214	12818	46.00944	2002
214	12818	46.00944	2003
214	12818	46.00944	2004
214	12818	46.00944	2005
214	12818	46.00944	2006
214	12818	46.00944	2007
214	12818	46.00944	2008
214	12818	46.00944	2009
214	12818	46.00944	2010
214	12818	46.00944	2011
214	13057	46.558176	2012
214	13057	46.558176	2013
214	13057	46.558176	2014
214	13057	46.558176	2015
214	13057	46.558176	2016
214	13057	46.558176	2017
214	13057	46.558176	2018
214	13057	46.558176	2019
214	13057	46.558176	2020
214	13057	46.558176	2021
214	13057	46.558176	2022
214	13057	46.558176	2023
214	13195	47.106912	2024
214	13195	47.106912	2025
214	13195	47.106912	2026
214	13195	47.106912	2027
214	13195	47.106912	2028
214	13195	47.106912	2029
214	13195	47.106912	2030
214	13195	47.106912	2031
214	13195	47.106912	2032
214	13195	47.106912	2033
214	13195	47.106912	2034
214	13195	47.106912	2035
214	13333	47.655648	2036
214	13333	47.655648	2037
214	13333	47.655648	2038
214	13333	47.655648	2039
214	13333	47.655648	2040
214	13333	47.655648	2041
214	13333	47.655648	2042
214	13333	47.655648	2043
214	13333	47.655648	2044
214	13333	47.655648	2045
214	13333	47.655648	2046
214	13333	47.655648	2047
214	13471	48.204384	2048
214	13471	48.204384	2049
214	13471	48.204384	2050
214	13471	48.204384	2051
214	13471	48.204384	2052
214	13471	48.204384	2053
214	13471	48.204384	2054
214	13471	48.204384	2055
214	13471	48.204384	2056
214	13471	48.204384	2057
214	13471	48.204384	2058
214	13471	48.204384	2059
214	13609	48.75312	2060
214	13609	48.75312	2061
214	13609	48.75312	2062
214	13609	48.75312	2063
214	13609	48.75312	2064
214	13609	48.75312	2065
214	13609	48.75312	2066
214	13609	48.75312	2067
214	13609	48.75312	2068
214	13609	48.75312	2069
214	13609	48.75312	2070
214	13609	48.75312	2071
214	13747	49.301856	2072
214	13747	49.301856	2073
214	13747	49.301856	2074
214	13747	49.301856	2075
214	13747	49.301856	2076
214	13747	49.301856	2077
214	13747	49.301856	2078
214	13747	49.301856	2079
214	13747	49.301856	2080
214	13747	49.301856	2081
214	13747	49.301856	2082
214	13747	49.301856	2083
214	13885	49.850592	2084
214	13885	49.850592	2085
214	13885	49.850592	2086
214	13885	49.850592	2087
214	13885	49.850592	2088
214	13885	49.850592	2089
214	13885	49.850592	2090
214	13885	49.850592	2091
214	13885	49.850592	2092
214	13885	49.850592	2093
214	13885	49.850592	2094
214	13885	49.850592	2095
214	14023	50.399328	2096
214	14023	50.399328	2097
214	14023	50.399328	2098
214	14023	50.399328	2099
214	14023	50.399328	2100
214	14023	50.399328	2101
214	14023	50.399328	2102
214	14023	50.399328	2103
214	14023	50.399328	2104
214	14023	50.399328	2105
214	14023	50.399328	2106
214	14023	50.399328	2107
214	14262	50.948064	2108
214	14262	50.948064	2109
214	14262	50.948064	2110
214	14262	50.948064	2111
214	14262	50.948064	2112
214	14262	50.948064	2113
214	14262	50.948064	2114
214	14262	50.948064	2115
214	14262	50.948064	2116
214	14262	50.948064	2117
214	14262	50.948064	2118
214	14262	50.948064	2119
214	14400	51.4968	2120
214	14400	51.4968	2121
214	14400	51.4968	2122
214	14400	51.4968	2123
214	14400	51.4968	2124
214	14400	51.4968	2125
214	14400	51.4968	2126
214	14400	51.4968	2127
214	14400	51.4968	2128
214	14400	51.4968	2129
214	14400	51.4968	2130
214	14400	51.4968	2131
214	14538	52.045536	2132
214	14538	52.045536	2133
214	14538	52.045536	2134
214	14538	52.045536	2135
214	14538	52.045536	2136
214	14538	52.045536	2137
214	14538	52.045536	2138
214	14538	52.045536	2139
214	14538	52.045536	2140
214	14538	52.045536	2141
214	14538	52.045536	2142
214	14538	52.045536	2143
214	14676	52.594272	2144
214	14676	52.594272	2145
214	14676	52.594272	2146
214	14676	52.594272	2147
214	14676	52.594272	2148
214	14676	52.594272	2149
214	14676	52.594272	2150
214	14676	52.594272	2151
214	14676	52.594272	2152
214	14676	52.594272	2153
214	14676	52.594272	2154
214	14676	52.594272	2155
214	14814	53.143008	2156
214	14814	53.143008	2157
214	14814	53.143008	2158
214	14814	53.143008	2159
214	14814	53.143008	2160
214	14814	53.143008	2161
214	14814	53.143008	2162
214	14814	53.143008	2163
214	14814	53.143008	2164
214	14814	53.143008	2165
214	14814	53.143008	2166
214	14814	53.143008	2167
214	14952	53.691744	2168
214	14952	53.691744	2169
214	14952	53.691744	2170
214	14952	53.691744	2171
214	14952	53.691744	2172
214	14952	53.691744	2173
214	14952	53.691744	2174
214	14952	53.691744	2175
214	14952	53.691744	2176
214	14952	53.691744	2177
214	14952	53.691744	2178
214	14952	53.691744	2179
214	15090	54.24048	2180
214	15090	54.24048	2181
214	15090	54.24048	2182
214	15090	54.24048	2183
214	15090	54.24048	2184
214	15090	54.24048	2185
214	15090	54.24048	2186
214	15090	54.24048	2187
214	15090	54.24048	2188
214	15090	54.24048	2189
214	15090	54.24048	2190
214	15090	54.24048	2191
214	15228	54.789216	2192
214	15228	54.789216	2193
214	15228	54.789216	2194
214	15228	54.789216	2195
214	15228	54.789216	2196
214	15228	54.789216	2197
214	15228	54.789216	2198
214	15228	54.789216	2199
214	15228	54.789216	2200
214	15228	54.789216	2201
214	15228	54.789216	2202
214	15228	54.789216	2203
214	15467	55.337952	2204
214	15467	55.337952	2205
214	15467	55.337952	2206
214	15467	55.337952	2207
214	15467	55.337952	2208
214	15467	55.337952	2209
214	15467	55.337952	2210
214	15467	55.337952	2211
214	15467	55.337952	2212
214	15467	55.337952	2213
214	15467	55.337952	2214
214	15467	55.337952	2215
214	15605	55.886688	2216
214	15605	55.886688	2217
214	15605	55.886688	2218
214	15605	55.886688	2219
214	15605	55.886688	2220
214	15605	55.886688	2221
214	15605	55.886688	2222
214	15605	55.886688	2223
214	15605	55.886688	2224
214	15605	55.886688	2225
214	15605	55.886688	2226
214	15605	55.886688	2227
214	15743	56.435424	2228
214	15743	56.435424	2229
214	15743	56.435424	2230
214	15743	56.435424	2231
214	15743	56.435424	2232
214	15743	56.435424	2233
214	15743	56.435424	2234
214	15743	56.435424	2235
214	15743	56.435424	2236
214	15743	56.435424	2237
214	15743	56.435424	2238
214	15743	56.435424	2239
214	15881	56.98416	2240
214	15881	56.98416	2241
214	15881	56.98416	2242
214	15881	56.98416	2243
214	15881	56.98416	2244
214	15881	56.98416	2245
214	15881	56.98416	2246
214	15881	56.98416	2247
214	15881	56.98416	2248
214	15881	56.98416	2249
214	15881	56.98416	2250
214	15881	56.98416	2251
214	16019	57.532896	2252
214	16019	57.532896	2253
214	16019	57.532896	2254
214	16019	57.532896	2255
214	16019	57.532896	2256
214	16019	57.532896	2257
214	16019	57.532896	2258
214	16019	57.532896	2259
214	16019	57.532896	2260
214	16019	57.532896	2261
214	16019	57.532896	2262
214	16019	57.532896	2263
214	16157	58.081632	2264
214	16157	58.081632	2265
214	16157	58.081632	2266
214	16157	58.081632	2267
214	16157	58.081632	2268
214	16157	58.081632	2269
214	16157	58.081632	2270
214	16157	58.081632	2271
214	16157	58.081632	2272
214	16157	58.081632	2273
214	16157	58.081632	2274
214	16157	58.081632	2275
214	16295	58.630368	2276
214	16295	58.630368	2277
214	16295	58.630368	2278
214	16295	58.630368	2279
214	16295	58.630368	2280
214	16295	58.630368	2281
214	16295	58.630368	2282
214	16295	58.630368	2283
214	16295	58.630368	2284
214	16295	58.630368	2285
214	16295	58.630368	2286
214	16295	58.630368	2287
214	16433	59.179104	2288
214	16433	59.179104	2289
214	16433	59.179104	2290
214	16433	59.179104	2291
214	16433	59.179104	2292
214	16433	59.179104	2293
214	16433	59.179104	2294
214	16433	59.179104	2295
214	16433	59.179104	2296
214	16433	59.179104	2297
214	16433	59.179104	2298
214	16433	59.179104	2299
214	16571	59.72784	2300
214	16571	59.72784	2301
214	16571	59.72784	2302
214	16571	59.72784	2303
214	16571	59.72784	2304
214	16571	59.72784	2305
214	16571	59.72784	2306
214	16571	59.72784	2307
214	16571	59.72784	2308
214	16571	59.72784	2309
214	16571	59.72784	2310
214	16571	59.72784	2311
214	16810	60.276576	2312
214	16810	60.276576	2313
214	16810	60.276576	2314
214	16810	60.276576	2315
214	16810	60.276576	2316
214	16810	60.276576	2317
214	16810	60.276576	2318
214	16810	60.276576	2319
214	16810	60.276576	2320
214	16810	60.276576	2321
214	16810	60.276576	2322
214	16810	60.276576	2323
214	16948	60.825312	2324
214	16948	60.825312	2325
214	16948	60.825312	2326
214	16948	60.825312	2327
214	16948	60.825312	2328
214	16948	60.825312	2329
214	16948	60.825312	2330
214	16948	60.825312	2331
214	16948	60.825312	2332
214	16948	60.825312	2333
214	16948	60.825312	2334
214	16948	60.825312	2335
214	17086	61.374048	2336
214	17086	61.374048	2337
214	17086	61.374048	2338
214	17086	61.374048	2339
214	17086	61.374048	2340
214	17086	61.374048	2341
214	17086	61.374048	2342
214	17086	61.374048	2343
214	17086	61.374048	2344
214	17086	61.374048	2345
214	17086	61.374048	2346
214	17086	61.374048	2347
214	17224	61.922784	2348
214	17224	61.922784	2349
214	17224	61.922784	2350
214	17224	61.922784	2351
214	17224	61.922784	2352
214	17224	61.922784	2353
214	17224	61.922784	2354
214	17224	61.922784	2355
214	17224	61.922784	2356
214	17224	61.922784	2357
214	17224	61.922784	2358
214	17224	61.922784	2359
214	17362	62.47152	2360
214	17362	62.47152	2361
214	17362	62.47152	2362
214	17362	62.47152	2363
214	17362	62.47152	2364
214	17362	62.47152	2365
214	17362	62.47152	2366
214	17362	62.47152	2367
214	17362	62.47152	2368
214	17362	62.47152	2369
214	17362	62.47152	2370
214	17362	62.47152	2371
214	17500	63.020256	2372
214	17500	63.020256	2373
214	17500	63.020256	2374
214	17500	63.020256	2375
214	17500	63.020256	2376
214	17500	63.020256	2377
214	17500	63.020256	2378
214	17500	63.020256	2379
214	17500	63.020256	2380
214	17500	63.020256	2381
214	17500	63.020256	2382
214	17500	63.020256	2383
214	17638	63.568992	2384
214	17638	63.568992	2385
214	17638	63.568992	2386
214	17638	63.568992	2387
214	17638	63.568992	2388
214	17638	63.568992	2389
214	17638	63.568992	2390
214	17638	63.568992	2391
214	17638	63.568992	2392
214	17638	63.568992	2393
214	17638	63.568992	2394
214	17638	63.568992	2395
214	17776	64.117728	2396
214	17776	64.117728	2397
214	17776	64.117728	2398
214	17776	64.117728	2399
214	17776	64.117728	2400
214	17776	64.117728	2401
214	17776	64.117728	2402
214	17776	64.117728	2403
214	17776	64.117728	2404
214	17776	64.117728	2405
214	17776	64.117728	2406
214	17776	64.117728	2407
214	18015	64.666464	2408
214	18015	64.666464	2409
214	18015	64.666464	2410
214	18015	64.666464	2411
214	18015	64.666464	2412
214	18015	64.666464	2413
214	18015	64.666464	2414
214	18015	64.666464	2415
214	18015	64.666464	2416
214	18015	64.666464	2417
214	18015	64.666464	2418
214	18015	64.666464	2419
214	18223	65.2152	2420
214	18223	65.2152	2421
214	18223	65.2152	2422
214	18223	65.2152	2423
214	18223	65.2152	2424
214	18223	65.2152	2425
214	18223	65.2152	2426
214	18223	65.2152	2427
214	18223	65.2152	2428
214	18223	65.2152	2429
214	18223	65.2152	2430
214	18223	65.2152	2431
214	18361	65.763936	2432
214	18361	65.763936	2433
214	18361	65.763936	2434
214	18361	65.763936	2435
214	18361	65.763936	2436
214	18361	65.763936	2437
214	18361	65.763936	2438
214	18361	65.763936	2439
214	18361	65.763936	2440
214	18361	65.763936	2441
214	18361	65.763936	2442
214	18361	65.763936	2443
214	18499	66.312672	2444
214	18499	66.312672	2445
214	18499	66.312672	2446
214	18499	66.312672	2447
214	18499	66.312672	2448
214	18499	66.312672	2449
214	18499	66.312672	2450
214	18499	66.312672	2451
214	18499	66.312672	2452
214	18499	66.312672	2453
214	18499	66.312672	2454
214	18499	66.312672	2455
214	18637	66.861408	2456
214	18637	66.861408	2457
214	18637	66.861408	2458
214	18637	66.861408	2459
214	18637	66.861408	2460
214	18637	66.861408	2461
214	18637	66.861408	2462
214	18637	66.861408	2463
214	18637	66.861408	2464
214	18637	66.861408	2465
214	18637	66.861408	2466
214	18637	66.861408	2467
214	18776	67.410144	2468
214	18776	67.410144	2469
214	18776	67.410144	2470
214	18776	67.410144	2471
214	18776	67.410144	2472
214	18776	67.410144	2473
214	18776	67.410144	2474
214	18776	67.410144	2475
214	18776	67.410144	2476
214	18776	67.410144	2477
214	18776	67.410144	2478
214	18776	67.410144	2479
214	18914	67.95888	2480
214	18914	67.95888	2481
214	18914	67.95888	2482
214	18914	67.95888	2483
214	18914	67.95888	2484
214	18914	67.95888	2485
214	18914	67.95888	2486
214	18914	67.95888	2487
214	18914	67.95888	2488
214	18914	67.95888	2489
214	18914	67.95888	2490
214	18914	67.95888	2491
214	19052	68.507616	2492
214	19052	68.507616	2493
214	19052	68.507616	2494
214	19052	68.507616	2495
214	19052	68.507616	2496
214	19052	68.507616	2497
214	19052	68.507616	2498
214	19052	68.507616	2499
214	19052	68.507616	2500
214	19052	68.507616	2501
214	19052	68.507616	2502
214	19052	68.507616	2503
214	19291	69.056352	2504
214	19291	69.056352	2505
214	19291	69.056352	2506
214	19291	69.056352	2507
214	19291	69.056352	2508
214	19291	69.056352	2509
214	19291	69.056352	2510
214	19291	69.056352	2511
214	19291	69.056352	2512
214	19291	69.056352	2513
214	19291	69.056352	2514
214	19291	69.056352	2515
214	19429	69.605088	2516
214	19429	69.605088	2517
214	19429	69.605088	2518
214	19429	69.605088	2519
214	19429	69.605088	2520
214	19429	69.605088	2521
214	19429	69.605088	2522
214	19429	69.605088	2523
214	19429	69.605088	2524
214	19429	69.605088	2525
214	19429	69.605088	2526
214	19429	69.605088	2527
214	19587	70.153824	2528
214	19587	70.153824	2529
214	19587	70.153824	2530
214	19587	70.153824	2531
214	19587	70.153824	2532
214	19587	70.153824	2533
214	19587	70.153824	2534
214	19587	70.153824	2535
214	19587	70.153824	2536
214	19587	70.153824	2537
214	19587	70.153824	2538
214	19587	70.153824	2539
214	19725	70.70256	2540
214	19725	70.70256	2541
214	19725	70.70256	2542
214	19725	70.70256	2543
214	19725	70.70256	2544
214	19725	70.70256	2545
214	19725	70.70256	2546
214	19725	70.70256	2547
214	19725	70.70256	2548
214	19725	70.70256	2549
214	19725	70.70256	2550
214	19725	70.70256	2551
214	19848	71.314112	2552
214	19848	71.314112	2553
214	19848	71.314112	2554
214	19848	71.314112	2555
214	19848	71.314112	2556
214	19848	71.314112	2557
214	19848	71.314112	2558
214	19848	71.314112	2559
214	19848	71.314112	2560
214	19848	71.314112	2561
214	19848	71.314112	2562
214	19848	71.314112	2563
214	20580	73.588704	2564
214	20580	73.588704	2565
214	20580	73.588704	2566
214	20580	73.588704	2567
214	20580	73.588704	2568
214	20580	73.588704	2569
214	20580	73.588704	2570
214	20580	73.588704	2571
214	20580	73.588704	2572
214	20580	73.588704	2573
214	20580	73.588704	2574
214	20580	73.588704	2575
214	20644	74.00592	2576
214	20644	74.00592	2577
214	20644	74.00592	2578
214	20644	74.00592	2579
214	20644	74.00592	2580
214	20644	74.00592	2581
214	20644	74.00592	2582
214	20644	74.00592	2583
214	20644	74.00592	2584
214	20644	74.00592	2585
214	20644	74.00592	2586
214	20644	74.00592	2587
214	20690	74.143104	2588
214	20690	74.143104	2589
214	20690	74.143104	2590
214	20732	74.280288	2591
214	20732	74.280288	2592
214	20732	74.280288	2593
214	20774	74.417472	2594
214	20774	74.417472	2595
214	20774	74.417472	2596
214	20814	74.554656	2597
214	20814	74.554656	2598
214	20814	74.554656	2599
214	20854	74.69184	2600
214	20854	74.69184	2601
214	20854	74.69184	2602
214	20995	74.829024	2603
214	20995	74.829024	2604
214	20995	74.829024	2605
214	21114	75.240576	2606
214	21114	75.240576	2607
214	21114	75.240576	2608
214	21114	75.240576	2609
214	21114	75.240576	2610
214	21114	75.240576	2611
214	21114	75.240576	2612
214	21114	75.240576	2613
214	21114	75.240576	2614
214	21206	75.423936	2615
214	21206	75.423936	2616
214	21206	75.423936	2617
214	21206	75.423936	2618
214	21206	75.423936	2619
214	21206	75.423936	2620
214	21206	75.423936	2621
214	21206	75.423936	2622
214	21206	75.423936	2623
214	21277	75.698304	2624
214	21277	75.698304	2625
214	21277	75.698304	2626
214	21277	75.698304	2627
214	21277	75.698304	2628
214	21277	75.698304	2629
214	21346	75.972672	2630
214	21346	75.972672	2631
214	21346	75.972672	2632
214	21346	75.972672	2633
214	21346	75.972672	2634
214	21346	75.972672	2635
214	21415	76.24704	2636
214	21415	76.24704	2637
214	21415	76.24704	2638
214	21415	76.24704	2639
214	21415	76.24704	2640
214	21415	76.24704	2641
214	21484	76.521408	2642
214	21484	76.521408	2643
214	21484	76.521408	2644
214	21484	76.521408	2645
214	21484	76.521408	2646
214	21484	76.521408	2647
214	21553	76.795776	2648
214	21553	76.795776	2649
214	21553	76.795776	2650
214	21553	76.795776	2651
214	21553	76.795776	2652
214	21553	76.795776	2653
214	21553	76.795776	2654
214	21553	76.795776	2655
214	21553	76.795776	2656
214	21624	77.070144	2657
214	21624	77.070144	2658
214	21624	77.070144	2659
214	21624	77.070144	2660
214	21624	77.070144	2661
214	21624	77.070144	2662
214	21693	77.344512	2663
214	21693	77.344512	2664
214	21693	77.344512	2665
214	21693	77.344512	2666
214	21693	77.344512	2667
214	21693	77.344512	2668
214	21762	77.61888	2669
214	21762	77.61888	2670
214	21762	77.61888	2671
214	21762	77.61888	2672
214	21762	77.61888	2673
214	21762	77.61888	2674
214	21831	77.893248	2675
214	21831	77.893248	2676
214	21831	77.893248	2677
214	21831	77.893248	2678
214	21831	77.893248	2679
214	21831	77.893248	2680
214	21900	78.167616	2681
214	21900	78.167616	2682
214	21900	78.167616	2683
214	21900	78.167616	2684
214	21900	78.167616	2685
214	21900	78.167616	2686
214	21969	78.441984	2687
214	21969	78.441984	2688
214	21969	78.441984	2689
214	21969	78.441984	2690
214	21969	78.441984	2691
214	21969	78.441984	2692
214	21969	78.441984	2693
214	21969	78.441984	2694
214	21969	78.441984	2695
214	22040	78.716352	2696
214	22040	78.716352	2697
214	22040	78.716352	2698
214	22040	78.716352	2699
214	22040	78.716352	2700
214	22040	78.716352	2701
214	22210	78.99072	2702
214	22210	78.99072	2703
214	22210	78.99072	2704
214	22210	78.99072	2705
214	22210	78.99072	2706
214	22210	78.99072	2707
214	22279	79.265088	2708
214	22279	79.265088	2709
214	22279	79.265088	2710
214	22279	79.265088	2711
214	22279	79.265088	2712
214	22279	79.265088	2713
214	22348	79.539456	2714
214	22348	79.539456	2715
214	22348	79.539456	2716
214	22348	79.539456	2717
214	22348	79.539456	2718
214	22348	79.539456	2719
214	22417	79.813824	2720
214	22417	79.813824	2721
214	22417	79.813824	2722
214	22417	79.813824	2723
214	22417	79.813824	2724
214	22417	79.813824	2725
214	22486	80.088192	2726
214	22486	80.088192	2727
214	22486	80.088192	2728
214	22486	80.088192	2729
214	22486	80.088192	2730
214	22486	80.088192	2731
214	22486	80.088192	2732
214	22486	80.088192	2733
214	22486	80.088192	2734
214	22557	80.36256	2735
214	22557	80.36256	2736
214	22557	80.36256	2737
214	22557	80.36256	2738
214	22557	80.36256	2739
214	22557	80.36256	2740
214	22626	80.636928	2741
214	22626	80.636928	2742
214	22626	80.636928	2743
214	22626	80.636928	2744
214	22626	80.636928	2745
214	22626	80.636928	2746
214	22695	80.911296	2747
214	22695	80.911296	2748
214	22695	80.911296	2749
214	22695	80.911296	2750
214	22695	80.911296	2751
214	22695	80.911296	2752
214	22764	81.185664	2753
214	22764	81.185664	2754
214	22764	81.185664	2755
214	22764	81.185664	2756
214	22764	81.185664	2757
214	22764	81.185664	2758
214	22833	81.460032	2759
214	22833	81.460032	2760
214	22833	81.460032	2761
214	22833	81.460032	2762
214	22833	81.460032	2763
214	22833	81.460032	2764
214	22902	81.7344	2765
214	22902	81.7344	2766
214	22902	81.7344	2767
214	22902	81.7344	2768
214	22902	81.7344	2769
214	22902	81.7344	2770
214	22971	82.008768	2771
214	22971	82.008768	2772
214	22971	82.008768	2773
214	22971	82.008768	2774
214	22971	82.008768	2775
214	22971	82.008768	2776
214	22971	82.008768	2777
214	22971	82.008768	2778
214	22971	82.008768	2779
214	23042	82.283136	2780
214	23042	82.283136	2781
214	23042	82.283136	2782
214	23042	82.283136	2783
214	23042	82.283136	2784
214	23042	82.283136	2785
214	23111	82.557504	2786
214	23111	82.557504	2787
214	23111	82.557504	2788
214	23111	82.557504	2789
214	23111	82.557504	2790
214	23111	82.557504	2791
214	23180	82.831872	2792
214	23180	82.831872	2793
214	23180	82.831872	2794
214	23180	82.831872	2795
214	23180	82.831872	2796
214	23180	82.831872	2797
214	23249	83.10624	2798
214	23249	83.10624	2799
214	23249	83.10624	2800
214	23249	83.10624	2801
214	23249	83.10624	2802
214	23249	83.10624	2803
214	23419	83.380608	2804
214	23419	83.380608	2805
214	23419	83.380608	2806
214	23419	83.380608	2807
214	23419	83.380608	2808
214	23419	83.380608	2809
214	23488	83.654976	2810
214	23488	83.654976	2811
214	23488	83.654976	2812
214	23488	83.654976	2813
214	23488	83.654976	2814
214	23488	83.654976	2815
214	23557	83.929344	2816
214	23557	83.929344	2817
214	23557	83.929344	2818
214	23557	83.929344	2819
214	23557	83.929344	2820
214	23557	83.929344	2821
214	23557	83.929344	2822
214	23557	83.929344	2823
214	23557	83.929344	2824
214	23628	84.203712	2825
214	23628	84.203712	2826
214	23628	84.203712	2827
214	23628	84.203712	2828
214	23628	84.203712	2829
214	23628	84.203712	2830
214	23697	84.47808	2831
214	23697	84.47808	2832
214	23697	84.47808	2833
214	23697	84.47808	2834
214	23697	84.47808	2835
214	23697	84.47808	2836
214	23766	84.752448	2837
214	23766	84.752448	2838
214	23766	84.752448	2839
214	23766	84.752448	2840
214	23766	84.752448	2841
214	23766	84.752448	2842
214	23835	85.026816	2843
214	23835	85.026816	2844
214	23835	85.026816	2845
214	23835	85.026816	2846
214	23835	85.026816	2847
214	23835	85.026816	2848
214	23904	85.301184	2849
214	23904	85.301184	2850
214	23904	85.301184	2851
214	23904	85.301184	2852
214	23904	85.301184	2853
214	23904	85.301184	2854
214	23973	85.575552	2855
214	23973	85.575552	2856
214	23973	85.575552	2857
214	23973	85.575552	2858
214	23973	85.575552	2859
214	23973	85.575552	2860
214	24042	85.84992	2861
214	24042	85.84992	2862
214	24042	85.84992	2863
214	24042	85.84992	2864
214	24042	85.84992	2865
214	24042	85.84992	2866
214	24111	86.124288	2867
214	24111	86.124288	2868
214	24111	86.124288	2869
214	24111	86.124288	2870
214	24111	86.124288	2871
214	24111	86.124288	2872
214	24111	86.124288	2873
214	24111	86.124288	2874
214	24111	86.124288	2875
214	24247	86.673024	2876
214	24247	86.673024	2877
214	24247	86.673024	2878
214	24247	86.673024	2879
214	24247	86.673024	2880
214	24247	86.673024	2881
214	24247	86.673024	2882
214	24247	86.673024	2883
214	24247	86.673024	2884
214	24247	86.673024	2885
214	24247	86.673024	2886
214	24247	86.673024	2887
214	24385	87.22176	2888
214	24385	87.22176	2889
214	24385	87.22176	2890
214	24385	87.22176	2891
214	24385	87.22176	2892
214	24385	87.22176	2893
214	24385	87.22176	2894
214	24385	87.22176	2895
214	24385	87.22176	2896
214	24385	87.22176	2897
214	24385	87.22176	2898
214	24385	87.22176	2899
214	24523	87.770496	2900
214	24523	87.770496	2901
214	24523	87.770496	2902
214	24523	87.770496	2903
214	24523	87.770496	2904
214	24523	87.770496	2905
214	24523	87.770496	2906
214	24523	87.770496	2907
214	24523	87.770496	2908
214	24523	87.770496	2909
214	24523	87.770496	2910
214	24523	87.770496	2911
214	24762	88.319232	2912
214	24762	88.319232	2913
214	24762	88.319232	2914
214	24762	88.319232	2915
214	24762	88.319232	2916
214	24762	88.319232	2917
214	24762	88.319232	2918
214	24762	88.319232	2919
214	24762	88.319232	2920
214	24762	88.319232	2921
214	24762	88.319232	2922
214	24762	88.319232	2923
214	24900	88.867968	2924
214	24900	88.867968	2925
214	24900	88.867968	2926
214	24900	88.867968	2927
214	24900	88.867968	2928
214	24900	88.867968	2929
214	24900	88.867968	2930
214	24900	88.867968	2931
214	24900	88.867968	2932
214	24900	88.867968	2933
214	24900	88.867968	2934
214	24900	88.867968	2935
214	25038	89.416704	2936
214	25038	89.416704	2937
214	25038	89.416704	2938
214	25038	89.416704	2939
214	25038	89.416704	2940
214	25038	89.416704	2941
214	25038	89.416704	2942
214	25038	89.416704	2943
214	25038	89.416704	2944
214	25038	89.416704	2945
214	25038	89.416704	2946
214	25038	89.416704	2947
214	25176	89.96544	2948
214	25176	89.96544	2949
214	25176	89.96544	2950
214	25176	89.96544	2951
214	25176	89.96544	2952
214	25176	89.96544	2953
214	25176	89.96544	2954
214	25176	89.96544	2955
214	25176	89.96544	2956
214	25176	89.96544	2957
214	25176	89.96544	2958
214	25176	89.96544	2959
214	25314	90.514176	2960
214	25314	90.514176	2961
214	25314	90.514176	2962
214	25314	90.514176	2963
214	25314	90.514176	2964
214	25314	90.514176	2965
214	25314	90.514176	2966
214	25314	90.514176	2967
214	25314	90.514176	2968
214	25314	90.514176	2969
214	25314	90.514176	2970
214	25314	90.514176	2971
214	25452	91.062912	2972
214	25452	91.062912	2973
214	25452	91.062912	2974
214	25452	91.062912	2975
214	25452	91.062912	2976
214	25452	91.062912	2977
214	25452	91.062912	2978
214	25452	91.062912	2979
214	25452	91.062912	2980
214	25452	91.062912	2981
214	25452	91.062912	2982
214	25452	91.062912	2983
214	25590	91.611648	2984
214	25590	91.611648	2985
214	25590	91.611648	2986
214	25590	91.611648	2987
214	25590	91.611648	2988
214	25590	91.611648	2989
214	25590	91.611648	2990
214	25590	91.611648	2991
214	25590	91.611648	2992
214	25590	91.611648	2993
214	25590	91.611648	2994
214	25590	91.611648	2995
214	25728	92.160384	2996
214	25728	92.160384	2997
214	25728	92.160384	2998
214	25728	92.160384	2999
214	25728	92.160384	3000
214	25728	92.160384	3001
214	25728	92.160384	3002
214	25728	92.160384	3003
214	25728	92.160384	3004
214	25728	92.160384	3005
214	25728	92.160384	3006
214	25728	92.160384	3007
214	25967	92.70912	3008
214	25967	92.70912	3009
214	25967	92.70912	3010
214	25967	92.70912	3011
214	25967	92.70912	3012
214	25967	92.70912	3013
214	25967	92.70912	3014
214	25967	92.70912	3015
214	25967	92.70912	3016
214	25967	92.70912	3017
214	25967	92.70912	3018
214	25967	92.70912	3019
214	26105	93.257856	3020
214	26105	93.257856	3021
214	26105	93.257856	3022
214	26105	93.257856	3023
214	26105	93.257856	3024
214	26105	93.257856	3025
214	26105	93.257856	3026
214	26105	93.257856	3027
214	26105	93.257856	3028
214	26105	93.257856	3029
214	26105	93.257856	3030
214	26105	93.257856	3031
214	26243	93.806592	3032
214	26243	93.806592	3033
214	26243	93.806592	3034
214	26243	93.806592	3035
214	26243	93.806592	3036
214	26243	93.806592	3037
214	26243	93.806592	3038
214	26243	93.806592	3039
214	26243	93.806592	3040
214	26243	93.806592	3041
214	26243	93.806592	3042
214	26243	93.806592	3043
214	26381	94.355328	3044
214	26381	94.355328	3045
214	26381	94.355328	3046
214	26381	94.355328	3047
214	26381	94.355328	3048
214	26381	94.355328	3049
214	26381	94.355328	3050
214	26381	94.355328	3051
214	26381	94.355328	3052
214	26381	94.355328	3053
214	26381	94.355328	3054
214	26381	94.355328	3055
214	26519	94.904064	3056
214	26519	94.904064	3057
214	26519	94.904064	3058
214	26519	94.904064	3059
214	26519	94.904064	3060
214	26519	94.904064	3061
214	26519	94.904064	3062
214	26519	94.904064	3063
214	26519	94.904064	3064
214	26519	94.904064	3065
[...]
343	25096	89.685792	2668400
343	25133	89.822976	2669800
343	25134	89.822976	2671200
343	25135	89.822976	2672600
343	25159	89.96016	2674000
343	25160	89.96016	2675400
343	25161	89.96016	2676800
343	25206	90.097344	2678200
343	25207	90.097344	2679600
343	25208	90.097344	2681000
343	25232	90.234528	2682400
343	25233	90.234528	2683800
343	25234	90.234528	2685200
343	25271	90.371712	2686600
343	25272	90.371712	2688000
343	25273	90.371712	2689400
343	25297	90.508896	2690800
343	25298	90.508896	2692200
343	25299	90.508896	2693600
343	25344	90.64608	2695000
343	25345	90.64608	2696400
343	25346	90.64608	2697800
343	25370	90.783264	2699200
343	25371	90.783264	2700600
343	25372	90.783264	2702000
343	25409	90.920448	2703400
343	25410	90.920448	2704800
343	25411	90.920448	2706200
343	25435	91.057632	2707600
343	25436	91.057632	2709000
343	25437	91.057632	2710400
343	25482	91.194816	2711800
343	25483	91.194816	2713200
343	25484	91.194816	2714600
343	25508	91.332	2716000
343	25509	91.332	2717400
343	25510	91.332	2718800
343	25547	91.469184	2720200
343	25548	91.469184	2721600
343	25549	91.469184	2723000
343	25573	91.606368	2724400
343	25574	91.606368	2725800
343	25575	91.606368	2727200
343	25620	91.743552	2728600
343	25621	91.743552	2730000
343	25622	91.743552	2731400
343	25646	91.880736	2732800
343	25647	91.880736	2734200
343	25648	91.880736	2735600
343	25685	92.01792	2737000
343	25686	92.01792	2738400
343	25687	92.01792	2739800
343	25711	92.155104	2741200
343	25712	92.155104	2742600
343	25713	92.155104	2744000
343	25859	92.292288	2745400
343	25860	92.292288	2746800
343	25861	92.292288	2748200
343	25885	92.429472	2749600
343	25886	92.429472	2751000
343	25887	92.429472	2752400
343	25924	92.566656	2753800
343	25925	92.566656	2755200
343	25926	92.566656	2756600
343	25950	92.70384	2758000
343	25951	92.70384	2759400
343	25952	92.70384	2760800
343	25997	92.841024	2762200
343	25998	92.841024	2763600
343	25999	92.841024	2765000
343	26023	92.978208	2766400
343	26024	92.978208	2767800
343	26025	92.978208	2769200
343	26062	93.115392	2770600
343	26063	93.115392	2772000
343	26064	93.115392	2773400
343	26088	93.252576	2774800
343	26089	93.252576	2776200
343	26090	93.252576	2777600
343	26135	93.38976	2779000
343	26136	93.38976	2780400
343	26137	93.38976	2781800
343	26161	93.526944	2783200
343	26162	93.526944	2784600
343	26163	93.526944	2786000
343	26200	93.664128	2787400
343	26201	93.664128	2788800
343	26202	93.664128	2790200
343	26226	93.801312	2791600
343	26227	93.801312	2793000
343	26228	93.801312	2794400
343	26273	93.938496	2795800
343	26274	93.938496	2797200
343	26275	93.938496	2798600
343	26299	94.07568	2800000
343	26300	94.07568	2801400
343	26301	94.07568	2802800
343	26338	94.212864	2804200
343	26339	94.212864	2805600
343	26340	94.212864	2807000
343	26364	94.350048	2808400
343	26365	94.350048	2809800
343	26366	94.350048	2811200
343	26411	94.487232	2812600
343	26412	94.487232	2814000
343	26413	94.487232	2815400
343	26437	94.624416	2816800
343	26438	94.624416	2818200
343	26439	94.624416	2819600
343	26476	94.7616	2821000
343	26477	94.7616	2822400
343	26478	94.7616	2823800
343	26502	94.898784	2825200
343	26503	94.898784	2826600
343	26504	94.898784	2828000
343	26549	95.035968	2829400
343	26550	95.035968	2830800
343	26551	95.035968	2832200
343	26575	95.173152	2833600
343	26576	95.173152	2835000
343	26577	95.173152	2836400
343	26614	95.310336	2837800
343	26615	95.310336	2839200
343	26616	95.310336	2840600
343	26640	95.44752	2842000
343	26641	95.44752	2843400
343	26642	95.44752	2844800
343	26687	95.584704	2846200
343	26688	95.584704	2847600
343	26689	95.584704	2849000
343	26713	95.721888	2850400
343	26714	95.721888	2851800
343	26715	95.721888	2853200
343	26752	95.859072	2854600
343	26753	95.859072	2856000
343	26754	95.859072	2857400
343	26778	95.996256	2858800
343	26779	95.996256	2860200
343	26780	95.996256	2861600
343	26895	96.13344	2863000
343	26896	96.13344	2864400
343	26897	96.13344	2865800
343	26921	96.270624	2867200
343	26922	96.270624	2868600
343	26923	96.270624	2870000
343	26960	96.407808	2871400
343	26961	96.407808	2872800
343	26962	96.407808	2874200
343	26986	96.544992	2875600
343	26987	96.544992	2877000
343	26988	96.544992	2878400
343	27134	96.682176	2879800
343	27135	96.682176	2881200
343	27136	96.682176	2882600
343	27160	96.81936	2884000
343	27161	96.81936	2885400
343	27162	96.81936	2886800
343	27199	96.956544	2888200
343	27200	96.956544	2889600
343	27201	96.956544	2891000
343	27225	97.093728	2892400
343	27226	97.093728	2893800
343	27227	97.093728	2895200
343	27272	97.230912	2896600
343	27273	97.230912	2898000
343	27274	97.230912	2899400
343	27298	97.368096	2900800
343	27299	97.368096	2902200
343	27300	97.368096	2903600
343	27337	97.50528	2905000
343	27338	97.50528	2906400
343	27339	97.50528	2907800
343	27363	97.642464	2909200
343	27364	97.642464	2910600
343	27365	97.642464	2912000
343	27410	97.779648	2913400
343	27411	97.779648	2914800
343	27412	97.779648	2916200
343	27436	97.916832	2917600
343	27437	97.916832	2919000
343	27438	97.916832	2920400
343	27475	98.054016	2921800
343	27476	98.054016	2923200
343	27477	98.054016	2924600
343	27501	98.1912	2926000
343	27502	98.1912	2927400
343	27503	98.1912	2928800
343	27548	98.328384	2930200
343	27549	98.328384	2931600
343	27550	98.328384	2933000
343	27574	98.465568	2934400
343	27575	98.465568	2935800
343	27576	98.465568	2937200
343	27613	98.602752	2938600
343	27614	98.602752	2940000
343	27615	98.602752	2941400
343	27639	98.739936	2942800
343	27640	98.739936	2944200
343	27641	98.739936	2945600
343	27686	98.87712	2947000
343	27687	98.87712	2948400
343	27688	98.87712	2949800
343	27712	99.014304	2951200
343	27713	99.014304	2952600
343	27714	99.014304	2954000
343	27751	99.151488	2955400
343	27752	99.151488	2956800
343	27753	99.151488	2958200
343	27777	99.288672	2959600
343	27778	99.288672	2961000
343	27779	99.288672	2962400
343	27824	99.425856	2963800
343	27825	99.425856	2965200
343	27826	99.425856	2966600
343	27850	99.56304	2968000
343	27851	99.56304	2969400
343	27852	99.56304	2970800
343	27890	99.700224	2972200
343	27891	99.700224	2973600
343	27892	99.700224	2975000
343	27916	99.837408	2976400
343	27917	99.837408	2977800
343	27918	99.837408	2979200
343	27963	99.974592	2980600
343	27964	99.974592	2982000
343	27965	99.974592	2983400
343	27989	100.111776	2984800
343	27990	100.111776	2986200
343	27991	100.111776	2987600
343	28028	100.24896	2989000
343	28029	100.24896	2990400
343	28030	100.24896	2991800
343	28054	100.386144	2993200
343	28055	100.386144	2994600
343	28056	100.386144	2996000
343	28101	100.523328	2997400
343	28102	100.523328	2998800
343	28103	100.523328	3000200
343	28127	100.660512	3001600
343	28128	100.660512	3003000
343	28129	100.660512	3004400
343	28166	100.797696	3005800
343	28167	100.797696	3007200
343	28168	100.797696	3008600
343	28192	100.93488	3010000
343	28193	100.93488	3011400
343	28194	100.93488	3012800
343	28239	101.072064	3014200
343	28240	101.072064	3015600
343	28241	101.072064	3017000
343	28265	101.209248	3018400
343	28266	101.209248	3019800
343	28267	101.209248	3021200
343	28304	101.346432	3022600
343	28305	101.346432	3024000
343	28306	101.346432	3025400
343	28330	101.483616	3026800
343	28331	101.483616	3028200
343	28332	101.483616	3029600
343	28478	101.6208	3031000
343	28479	101.6208	3032400
343	28480	101.6208	3033800
343	28504	101.757984	3035200
343	28505	101.757984	3036600
343	28506	101.757984	3038000
343	28543	101.895168	3039400
343	28544	101.895168	3040800
343	28545	101.895168	3042200
343	28569	102.032352	3043600
343	28570	102.032352	3045000
343	28571	102.032352	3046400
343	28616	102.169536	3047800
343	28617	102.169536	3049200
343	28618	102.169536	3050600
343	28642	102.30672	3052000
343	28643	102.30672	3053400
343	28644	102.30672	3054800
343	28681	102.443904	3056200
343	28682	102.443904	3057600
343	28683	102.443904	3059000
343	28707	102.581088	3060400
343	28708	102.581088	3061800
343	28709	102.581088	3063200
343	28754	102.718272	3064600
343	28755	102.718272	3066000
343	28756	102.718272	3067400
343	28780	102.855456	3068800
343	28781	102.855456	3070200
343	28782	102.855456	3071600
343	28819	102.99264	3073000
343	28820	102.99264	3074400
343	28821	102.99264	3075800
343	28845	103.129824	3077200
343	28846	103.129824	3078600
343	28847	103.129824	3080000
343	28892	103.267008	3081400
343	28893	103.267008	3082800
343	28894	103.267008	3084200
343	28918	103.404192	3085600
343	28919	103.404192	3087000
343	28920	103.404192	3088400
343	28957	103.541376	3089800
343	28958	103.541376	3091200
343	28959	103.541376	3092600
343	28983	103.67856	3094000
343	28984	103.67856	3095400
343	28985	103.67856	3096800
343	29030	103.815744	3098200
343	29031	103.815744	3099600
343	29032	103.815744	3101000
343	29056	103.952928	3102400
343	29057	103.952928	3103800
343	29058	103.952928	3105200
343	29095	104.090112	3106600
343	29096	104.090112	3108000
343	29097	104.090112	3109400
343	29121	104.227296	3110800
343	29122	104.227296	3112200
343	29123	104.227296	3113600
343	29168	104.36448	3115000
343	29169	104.36448	3116400
343	29170	104.36448	3117800
343	29194	104.501664	3119200
343	29195	104.501664	3120600
343	29196	104.501664	3122000
343	29233	104.638848	3123400
343	29234	104.638848	3124800
343	29235	104.638848	3126200
343	29259	104.776032	3127600
343	29260	104.776032	3129000
343	29261	104.776032	3130400
343	29306	104.913216	3131800
343	29307	104.913216	3133200
343	29308	104.913216	3134600
343	29332	105.0504	3136000
343	29333	105.0504	3137400
343	29334	105.0504	3138800
343	29371	105.187584	3140200
343	29372	105.187584	3141600
343	29373	105.187584	3143000
343	29397	105.324768	3144400
343	29398	105.324768	3145800
343	29399	105.324768	3147200
343	29444	105.461952	3148600
343	29445	105.461952	3150000
343	29446	105.461952	3151400
343	29470	105.599136	3152800
343	29471	105.599136	3154200
343	29472	105.599136	3155600
343	29509	105.73632	3157000
343	29510	105.73632	3158400
343	29511	105.73632	3159800
343	29535	105.873504	3161200
343	29536	105.873504	3162600
343	29537	105.873504	3164000
343	29683	106.010688	3165400
343	29684	106.010688	3166800
343	29685	106.010688	3168200
343	29709	106.147872	3169600
343	29710	106.147872	3171000
343	29711	106.147872	3172400
343	29748	106.285056	3173800
343	29749	106.285056	3175200
343	29750	106.285056	3176600
343	29794	106.42224	3178000
343	29795	106.42224	3179400
343	29796	106.42224	3180800
343	29841	106.559424	3182200
343	29842	106.559424	3183600
343	29843	106.559424	3185000
343	29867	106.696608	3186400
343	29868	106.696608	3187800
343	29869	106.696608	3189200
343	29906	106.833792	3190600
343	29907	106.833792	3192000
343	29908	106.833792	3193400
343	29932	106.970976	3194800
343	29933	106.970976	3196200
343	29934	106.970976	3197600
343	29979	107.10816	3199000
343	29980	107.10816	3200400
343	29981	107.10816	3201800
343	30005	107.245344	3203200
343	30006	107.245344	3204600
343	30007	107.245344	3206000
343	30044	107.382528	3207400
343	30045	107.382528	3208800
343	30046	107.382528	3210200
343	30070	107.519712	3211600
343	30071	107.519712	3213000
343	30072	107.519712	3214400
343	30117	107.656896	3215800
343	30118	107.656896	3217200
343	30119	107.656896	3218600
343	30143	107.79408	3220000
343	30144	107.79408	3221400
343	30145	107.79408	3222800
343	30182	107.931264	3224200
343	30183	107.931264	3225600
343	30184	107.931264	3227000
343	30208	108.068448	3228400
343	30209	108.068448	3229800
343	30210	108.068448	3231200
343	30270	108.207392	3232600
343	30271	108.207392	3234000
343	30272	108.207392	3235400
343	30296	108.344576	3236800
343	30297	108.344576	3238200
343	30298	108.344576	3239600
343	30335	108.48176	3241000
343	30336	108.48176	3242400
343	30337	108.48176	3243800
343	30361	108.618944	3245200
343	30362	108.618944	3246600
343	30363	108.618944	3248000
343	30408	108.756128	3249400
343	30409	108.756128	3250800
343	30410	108.756128	3252200
343	30434	108.893312	3253600
343	30435	108.893312	3255000
343	30436	108.893312	3256400
343	30473	109.030496	3257800
343	30474	109.030496	3259200
343	30475	109.030496	3260600
343	30499	109.16768	3262000
343	30500	109.16768	3263400
343	30501	109.16768	3264800
343	30546	109.304864	3266200
343	30547	109.304864	3267600
343	30548	109.304864	3269000
343	30572	109.442048	3270400
343	30573	109.442048	3271800
343	30574	109.442048	3273200
343	30611	109.579232	3274600
343	30612	109.579232	3276000
343	30613	109.579232	3277400
343	30637	109.716416	3278800
343	30638	109.716416	3280200
343	30639	109.716416	3281600
343	30684	109.8536	3283000
343	30685	109.8536	3284400
343	30686	109.8536	3285800
343	30710	109.990784	3287200
343	30711	109.990784	3288600
343	30712	109.990784	3290000
343	30749	110.127968	3291400
343	30750	110.127968	3292800
343	30751	110.127968	3294200
343	30775	110.265152	3295600
343	30776	110.265152	3297000
343	30777	110.265152	3298400
343	30923	110.402336	3299800
343	30924	110.402336	3301200
343	30925	110.402336	3302600
343	30949	110.53952	3304000
343	30950	110.53952	3305400
343	30951	110.53952	3306800
343	30988	110.676704	3308200
343	30989	110.676704	3309600
343	30990	110.676704	3311000
343	31014	110.813888	3312400
343	31015	110.813888	3313800
343	31016	110.813888	3315200
343	31061	110.951072	3316600
343	31062	110.951072	3318000
343	31063	110.951072	3319400
343	31087	111.088256	3320800
343	31088	111.088256	3322200
343	31089	111.088256	3323600
343	31126	111.22544	3325000
343	31127	111.22544	3326400
343	31128	111.22544	3327800
343	31152	111.362624	3329200
343	31153	111.362624	3330600
343	31154	111.362624	3332000
343	31199	111.499808	3333400
343	31200	111.499808	3334800
343	31201	111.499808	3336200
343	31225	111.636992	3337600
343	31226	111.636992	3339000
343	31227	111.636992	3340400
343	31264	111.774176	3341800
343	31265	111.774176	3343200
343	31266	111.774176	3344600
343	31290	111.91136	3346000
343	31291	111.91136	3347400
343	31292	111.91136	3348800
343	31337	112.048544	3350200
343	31338	112.048544	3351600
343	31339	112.048544	3353000
343	31363	112.185728	3354400
343	31364	112.185728	3355800
343	31365	112.185728	3357200
343	31402	112.322912	3358600
343	31403	112.322912	3360000
343	31404	112.322912	3361400
343	31428	112.460096	3362800
343	31429	112.460096	3364200
343	31430	112.460096	3365600
343	31475	112.59728	3367000
343	31476	112.59728	3368400
343	31477	112.59728	3369800
343	31501	112.734464	3371200
343	31502	112.734464	3372600
343	31503	112.734464	3374000
343	31540	112.871648	3375400
343	31541	112.871648	3376800
343	31542	112.871648	3378200
343	31566	113.008832	3379600
343	31567	113.008832	3381000
343	31568	113.008832	3382400
343	31613	113.146016	3383800
343	31614	113.146016	3385200
343	31615	113.146016	3386600
343	31639	113.2832	3388000
343	31640	113.2832	3389400
343	31641	113.2832	3390800
343	31678	113.420384	3392200
343	31679	113.420384	3393600
343	31680	113.420384	3395000
343	31704	113.557568	3396400
343	31705	113.557568	3397800
343	31706	113.557568	3399200
343	31751	113.694752	3400600
343	31752	113.694752	3402000
343	31753	113.694752	3403400
343	31777	113.831936	3404800
343	31778	113.831936	3406200
343	31779	113.831936	3407600
343	31816	113.96912	3409000
343	31817	113.96912	3410400
343	31818	113.96912	3411800
343	31842	114.106304	3413200
343	31843	114.106304	3414600
343	31844	114.106304	3416000
343	31889	114.243488	3417400
343	31890	114.243488	3418800
343	31891	114.243488	3420200
343	31915	114.380672	3421600
343	31916	114.380672	3423000
343	31917	114.380672	3424400
343	31954	114.517856	3425800
343	31955	114.517856	3427200
343	31956	114.517856	3428600
343	31980	114.65504	3430000
343	31981	114.65504	3431400
343	31982	114.65504	3432800
343	32027	114.792224	3434200
343	32028	114.792224	3435600
343	32029	114.792224	3437000
343	32053	114.929408	3438400
343	32054	114.929408	3439800
343	32055	114.929408	3441200
343	32092	115.066592	3442600
343	32093	115.066592	3444000
343	32094	115.066592	3445400
343	32118	115.203776	3446800
343	32119	115.203776	3448200
343	32120	115.203776	3449600
343	32266	115.34096	3451000
343	32267	115.34096	3452400
343	32268	115.34096	3453800
343	32292	115.478144	3455200
343	32293	115.478144	3456600
343	32294	115.478144	3458000
343	32331	115.615328	3459400
343	32332	115.615328	3460800
343	32333	115.615328	3462200
343	32357	115.752512	3463600
343	32358	115.752512	3465000
343	32359	115.752512	3466400
343	32404	115.889696	3467800
343	32405	115.889696	3469200
343	32406	115.889696	3470600
343	32430	116.02688	3472000
343	32431	116.02688	3473400
343	32432	116.02688	3474800
343	32469	116.164064	3476200
343	32470	116.164064	3477600
343	32471	116.164064	3479000
343	32495	116.301248	3480400
343	32496	116.301248	3481800
343	32497	116.301248	3483200
343	32542	116.438432	3484600
343	32543	116.438432	3486000
343	32544	116.438432	3487400
343	32568	116.575616	3488800
343	32569	116.575616	3490200
343	32570	116.575616	3491600
343	32607	116.7128	3493000
343	32608	116.7128	3494400
343	32609	116.7128	3495800
343	32633	116.849984	3497200
343	32634	116.849984	3498600
343	32635	116.849984	3500000
343	32680	116.987168	3501400
343	32681	116.987168	3502800
343	32682	116.987168	3504200
343	32706	117.124352	3505600
343	32707	117.124352	3507000
343	32708	117.124352	3508400
343	32745	117.261536	3509800
343	32746	117.261536	3511200
343	32747	117.261536	3512600
343	32771	117.39872	3514000
343	32772	117.39872	3515400
343	32773	117.39872	3516800
343	32818	117.535904	3518200
343	32819	117.535904	3519600
343	32820	117.535904	3521000
343	32844	117.673088	3522400
343	32845	117.673088	3523800
343	32846	117.673088	3525200
343	32883	117.810272	3526600
343	32884	117.810272	3528000
343	32885	117.810272	3529400
343	32909	117.947456	3530800
343	32910	117.947456	3532200
343	32911	117.947456	3533600
343	32956	118.08464	3535000
343	32957	118.08464	3536400
343	32958	118.08464	3537800
343	32982	118.221824	3539200
343	32983	118.221824	3540600
343	32984	118.221824	3542000
343	33021	118.359008	3543400
343	33022	118.359008	3544800
343	33023	118.359008	3546200
343	33047	118.496192	3547600
343	33048	118.496192	3549000
343	33049	118.496192	3550400
343	33094	118.633376	3551800
343	33095	118.633376	3553200
343	33096	118.633376	3554600
343	33120	118.77056	3556000
343	33121	118.77056	3557400
343	33122	118.77056	3558800
343	33159	118.907744	3560200
343	33160	118.907744	3561600
343	33161	118.907744	3563000
343	33185	119.044928	3564400
343	33186	119.044928	3565800
343	33187	119.044928	3567200
343	33232	119.182112	3568600
343	33233	119.182112	3570000
343	33234	119.182112	3571400
343	33258	119.319296	3572800
343	33259	119.319296	3574200
343	33260	119.319296	3575600
343	33297	119.45648	3577000
343	33298	119.45648	3578400
343	33299	119.45648	3579800
343	33323	119.593664	3581200
343	33324	119.593664	3582600
343	33325	119.593664	3584000
343	33471	119.730848	3585400
343	33472	119.730848	3586800
343	33473	119.730848	3588200
343	33497	119.868032	3589600
343	33498	119.868032	3591000
343	33499	119.868032	3592400
343	33541	120.005216	3593800
343	33542	120.005216	3595200
343	33543	120.005216	3596600
343	33567	120.1424	3598000
343	33568	120.1424	3599400
343	33569	120.1424	3600800
343	33608	120.279584	3602200
343	33609	120.279584	3603600
343	33610	120.279584	3605000
343	33634	120.416768	3606400
343	33635	120.416768	3607800
343	33636	120.416768	3609200
343	33675	120.553952	3610600
343	33676	120.553952	3612000
343	33677	120.553952	3613400
343	33701	120.691136	3614800
343	33702	120.691136	3616200
343	33703	120.691136	3617600
343	33742	120.82832	3619000
343	33743	120.82832	3620400
343	33744	120.82832	3621800
343	33768	120.965504	3623200
343	33769	120.965504	3624600
343	33770	120.965504	3626000
343	33809	121.102688	3627400
343	33810	121.102688	3628800
343	33811	121.102688	3630200
343	33835	121.239872	3631600
343	33836	121.239872	3633000
343	33837	121.239872	3634400
343	33876	121.377056	3635800
343	33877	121.377056	3637200
343	33878	121.377056	3638600
343	33902	121.51424	3640000
343	33903	121.51424	3641400
343	33904	121.51424	3642800
343	33970	121.651424	3644200
343	33971	121.651424	3645600
343	33972	121.651424	3647000
343	34015	121.788608	3648400
343	34016	121.788608	3649800
343	34017	121.788608	3651200
