version 2
run General-0-20180703-21:57:24-5160
attr configname General
attr datetime 20180703-21:57:24
attr experiment General
attr inifile omnetpp.ini
attr iterationvars ""
attr iterationvars2 $repetition=0
attr measurement ""
attr network multi
attr processid 5160
attr repetition 0
attr replication #0
attr resultdir results
attr runnumber 0
attr seedset 0
param **.cli*.numTcpApps 0
param **.cli*.sctpApp[*].typename "\"SCTPClient\""
param **.cli*.tcpApp[*].typename "\"TCPBasicClientApp\""
param **.cli1.numSctpApps 1
param **.cli1.sctpApp[0].connectAddress "\"10.1.3.1\""
param **.cli1.sctpApp[0].connectPort 6666
param **.cli1.sctpApp[0].localAddress "\"10.1.1.1 10.2.1.1\""
param **.cli1.sctpApp[0].numRequestsPerSession 100000000
param **.cli1.sctpApp[0].outboundStreams 1
param **.cli1.sctpApp[0].primaryPath "\"10.1.3.1\""
param **.cli1.sctpApp[0].queueSize 100
param **.cli1.sctpApp[0].requestLength 1400
param **.cli1.sctpApp[0].startTime 1s
param **.cli1.sctpApp[0].stopTime 120s
param **.cmtCCVariant "\"cmt\""
param **.cmtCUCVariant "\"pseudoCumAckV2\""
param **.cmtUseDAC true
param **.cmtUseFRC true
param **.cmtUseSFR true
param **.numUdpApps 0
param **.ppp[*].queue.frameCapacity 20
param **.ppp[*].queueType "\"DropTailQueue\""
param **.srv1.numSctpApps 1
param **.srv1.numTcpApps 0
param **.srv1.sctpApp[*].typename "\"SCTPServer\""
param **.srv1.sctpApp[0].bytesToPush 0
param **.srv1.sctpApp[0].localAddress "\"10.1.3.1 10.2.3.1\""
param **.srv1.sctpApp[0].localPort 6666
param **.srv1.sctpApp[0].numPacketsToReceivePerClient 0
param **.srv1.sctpApp[0].numPacketsToSendPerClient 0
param **.srv1.sctpApp[0].outboundStreams 1
param **.srv1.sctpApp[0].queueSize 0
param **.srv1.sctpApp[0].readingInterval 0
param **.srv1.tcpApp[*].typename "\"TCPSinkApp\""
param **.udpApp[*].typename "\"UDPApp\""
param multi.testTimeout 0s
param multi.testing false

scalar multi.cli1.sctpApp[0] 	ums 	1400
scalar multi.cli1.sctp 	"Number of Fast Retransmissions 1:10.1.3.1" 	20
scalar multi.cli1.sctp 	"Number of Timer-Based Retransmissions 1:10.1.3.1" 	29
scalar multi.cli1.sctp 	"Number of Heartbeats Sent 1:10.1.3.1" 	1
scalar multi.cli1.sctp 	"Number of Heartbeats Received 1:10.1.3.1" 	3
scalar multi.cli1.sctp 	"Number of Heartbeat ACKs Sent 1:10.1.3.1" 	3
scalar multi.cli1.sctp 	"Number of Heartbeat ACKs Received 1:10.1.3.1" 	1
scalar multi.cli1.sctp 	"Number of Duplicates 1:10.1.3.1" 	0
scalar multi.cli1.sctp 	"Number of Bytes received from 1:10.1.3.1" 	0
scalar multi.cli1.sctp 	"Number of Fast Retransmissions 1:10.2.3.1" 	12
scalar multi.cli1.sctp 	"Number of Timer-Based Retransmissions 1:10.2.3.1" 	14
scalar multi.cli1.sctp 	"Number of Heartbeats Sent 1:10.2.3.1" 	1
scalar multi.cli1.sctp 	"Number of Heartbeats Received 1:10.2.3.1" 	4
scalar multi.cli1.sctp 	"Number of Heartbeat ACKs Sent 1:10.2.3.1" 	4
scalar multi.cli1.sctp 	"Number of Heartbeat ACKs Received 1:10.2.3.1" 	1
scalar multi.cli1.sctp 	"Number of Duplicates 1:10.2.3.1" 	0
scalar multi.cli1.sctp 	"Number of Bytes received from 1:10.2.3.1" 	0
scalar multi.cli1.sctp 	"Bytes received on stream 0 of assoc 1" 	0
scalar multi.cli1.sctp 	"Blocking TSNs Moved" 	0
scalar multi.srv1.sctp 	"Number of Fast Retransmissions 3:10.1.1.1" 	0
scalar multi.srv1.sctp 	"Number of Timer-Based Retransmissions 3:10.1.1.1" 	0
scalar multi.srv1.sctp 	"Number of Heartbeats Sent 3:10.1.1.1" 	3
scalar multi.srv1.sctp 	"Number of Heartbeats Received 3:10.1.1.1" 	1
scalar multi.srv1.sctp 	"Number of Heartbeat ACKs Sent 3:10.1.1.1" 	1
scalar multi.srv1.sctp 	"Number of Heartbeat ACKs Received 3:10.1.1.1" 	3
scalar multi.srv1.sctp 	"Number of Duplicates 3:10.1.1.1" 	0
scalar multi.srv1.sctp 	"Number of Bytes received from 3:10.1.1.1" 	3207400
scalar multi.srv1.sctp 	"Number of Fast Retransmissions 3:10.2.1.1" 	0
scalar multi.srv1.sctp 	"Number of Timer-Based Retransmissions 3:10.2.1.1" 	0
scalar multi.srv1.sctp 	"Number of Heartbeats Sent 3:10.2.1.1" 	4
scalar multi.srv1.sctp 	"Number of Heartbeats Received 3:10.2.1.1" 	1
scalar multi.srv1.sctp 	"Number of Heartbeat ACKs Sent 3:10.2.1.1" 	1
scalar multi.srv1.sctp 	"Number of Heartbeat ACKs Received 3:10.2.1.1" 	4
scalar multi.srv1.sctp 	"Number of Duplicates 3:10.2.1.1" 	0
scalar multi.srv1.sctp 	"Number of Bytes received from 3:10.2.1.1" 	2944200
scalar multi.srv1.sctp 	"Bytes received on stream 0 of assoc 3" 	54600
scalar multi.srv1.sctp 	"Blocking TSNs Moved" 	0
scalar multi.cli1.networkLayer.arp 	failedARPResolution:count 	0
attr title  "ARP failed resolutions, count"
scalar multi.cli1.networkLayer.arp 	completedARPResolution:count 	0
attr title  "ARP completed resolutions, count"
scalar multi.cli1.networkLayer.arp 	initiatedARPResolution:count 	0
attr title  "ARP initiated resolutions, count"
scalar multi.cli1.networkLayer.arp 	sentReply:count 	0
attr title  "ARP replies sent, count"
scalar multi.cli1.networkLayer.arp 	sentReq:count 	0
attr title  "ARP request sent, count"
scalar multi.cli1.lo0.lo 	droppedPkBitError:count 	0
attr interpolationmode  none
attr source  dropPkBitError
attr title  "packets dropped/bit error, count"
scalar multi.cli1.lo0.lo 	droppedPkBitError:sum(packetBytes) 	0
attr interpolationmode  none
attr source  dropPkBitError
attr title  "packets dropped/bit error, sum(packetBytes)"
scalar multi.cli1.lo0.lo 	rcvdPkFromHL:count 	0
attr interpolationmode  none
attr source  packetReceivedFromUpper
attr title  "packets received from higher layer, count"
scalar multi.cli1.lo0.lo 	rcvdPkFromHL:sum(packetBytes) 	0
attr interpolationmode  none
attr source  packetReceivedFromUpper
attr title  "packets received from higher layer, sum(packetBytes)"
scalar multi.cli1.lo0.lo 	passedUpPk:count 	0
attr interpolationmode  none
attr source  packetSentToUpper
attr title  "packets passed to higher layer, count"
scalar multi.cli1.lo0.lo 	passedUpPk:sum(packetBytes) 	0
attr interpolationmode  none
attr source  packetSentToUpper
attr title  "packets passed to higher layer, sum(packetBytes)"
statistic multi.cli1.ppp[0].queue 	queueingTime:histogram
field count 780
field mean 0.56988513175528
field stddev 0.23136083191564
field sum 444.51040276912
field sqrsum 295.01805255899
field min 0
field max 1.222944
attr interpolationmode  none
attr title  "queueing time, histogram"
bin	-INF	0
bin	-0.477312	0
bin	-0.4136704	0
bin	-0.3500288	0
bin	-0.2863872	0
bin	-0.2227456	0
bin	-0.159104	0
bin	-0.0954624	0
bin	-0.0318208	35
bin	0.0318208	5
bin	0.0954624	23
bin	0.159104	7
bin	0.2227456	21
bin	0.2863872	2
bin	0.3500288	153
bin	0.4136704	0
bin	0.477312	23
bin	0.5409536	150
bin	0.6045952	3
bin	0.6682368	164
bin	0.7318784	2
bin	0.79552	157
bin	0.8591616	2
bin	0.9228032	27
bin	0.9864448	1
bin	1.0500864	4
bin	1.113728	0
bin	1.1773696	1
bin	1.2410112	0
bin	1.3046528	0
bin	1.3682944	0
bin	1.431936	0
scalar multi.cli1.ppp[0].queue 	dropPk:count 	0
attr interpolationmode  none
attr source  dropPkByQueue
attr title  "dropped packets, count"
scalar multi.cli1.ppp[0].queue 	dropPk:sum(packetBytes) 	0
attr interpolationmode  none
attr source  dropPkByQueue
attr title  "dropped packets, sum(packetBytes)"
scalar multi.cli1.ppp[0].queue 	queueLength:max 	9
attr interpolationmode  sample-hold
attr title  "queue length, max"
scalar multi.cli1.ppp[0].queue 	queueLength:timeavg 	3.6779619130341
attr interpolationmode  sample-hold
attr title  "queue length, timeavg"
scalar multi.cli1.ppp[0].queue 	rcvdPk:count 	780
attr interpolationmode  none
attr title  "received packets, count"
scalar multi.cli1.ppp[0].queue 	rcvdPk:sum(packetBytes) 	3273480
attr interpolationmode  none
attr title  "received packets, sum(packetBytes)"
scalar multi.cli1.ppp[0].ppp 	txState:timeavg 	0.8681779403134
attr interpolationmode  sample-hold
attr title  "tx state, timeavg"
scalar multi.cli1.ppp[0].ppp 	droppedPkIfaceDown:count 	0
attr interpolationmode  none
attr source  dropPkIfaceDown
attr title  "packets dropped/interface down, count"
scalar multi.cli1.ppp[0].ppp 	droppedPkIfaceDown:sum(packetBytes) 	0
attr interpolationmode  none
attr source  dropPkIfaceDown
attr title  "packets dropped/interface down, sum(packetBytes)"
scalar multi.cli1.ppp[0].ppp 	droppedPkBitError:count 	0
attr interpolationmode  none
attr source  dropPkBitError
attr title  "packets dropped/bit error, count"
scalar multi.cli1.ppp[0].ppp 	droppedPkBitError:sum(packetBytes) 	0
attr interpolationmode  none
attr source  dropPkBitError
attr title  "packets dropped/bit error, sum(packetBytes)"
scalar multi.cli1.ppp[0].ppp 	rxPkOk:count 	453
attr interpolationmode  none
attr source  rxPkOk
attr title  "packets received OK, count"
scalar multi.cli1.ppp[0].ppp 	rxPkOk:sum(packetBytes) 	27079
attr interpolationmode  none
attr source  rxPkOk
attr title  "packets received OK, sum(packetBytes)"
scalar multi.cli1.ppp[0].ppp 	txPk:count 	780
attr interpolationmode  none
attr source  packetSentToLower
attr title  "packets transmitted, count"
scalar multi.cli1.ppp[0].ppp 	txPk:sum(packetBytes) 	3278940
attr interpolationmode  none
attr source  packetSentToLower
attr title  "packets transmitted, sum(packetBytes)"
scalar multi.cli1.ppp[0].ppp 	rcvdPkFromHL:count 	780
attr interpolationmode  none
attr source  packetReceivedFromUpper
attr title  "packets received from higher layer, count"
scalar multi.cli1.ppp[0].ppp 	rcvdPkFromHL:sum(packetBytes) 	3273480
attr interpolationmode  none
attr source  packetReceivedFromUpper
attr title  "packets received from higher layer, sum(packetBytes)"
scalar multi.cli1.ppp[0].ppp 	passedUpPk:count 	453
attr interpolationmode  none
attr source  packetSentToUpper
attr title  "packets passed to higher layer, count"
scalar multi.cli1.ppp[0].ppp 	passedUpPk:sum(packetBytes) 	23908
attr interpolationmode  none
attr source  packetSentToUpper
attr title  "packets passed to higher layer, sum(packetBytes)"
statistic multi.cli1.ppp[1].queue 	queueingTime:histogram
field count 710
field mean 0.43970414859592
field stddev 0.19231110894599
field sum 312.1899455031
field sqrsum 163.49256008809
field min 0
field max 0.954624
attr interpolationmode  none
attr title  "queueing time, histogram"
bin	-INF	0
bin	-0.477312	0
bin	-0.4136704	0
bin	-0.3500288	0
bin	-0.2863872	0
bin	-0.2227456	0
bin	-0.159104	0
bin	-0.0954624	0
bin	-0.0318208	27
bin	0.0318208	1
bin	0.0954624	39
bin	0.159104	1
bin	0.2227456	153
bin	0.2863872	3
bin	0.3500288	170
bin	0.4136704	0
bin	0.477312	2
bin	0.5409536	160
bin	0.6045952	0
bin	0.6682368	134
bin	0.7318784	0
bin	0.79552	19
bin	0.8591616	0
bin	0.9228032	1
bin	0.9864448	0
bin	1.0500864	0
bin	1.113728	0
bin	1.1773696	0
bin	1.2410112	0
bin	1.3046528	0
bin	1.3682944	0
bin	1.431936	0
scalar multi.cli1.ppp[1].queue 	dropPk:count 	0
attr interpolationmode  none
attr source  dropPkByQueue
attr title  "dropped packets, count"
scalar multi.cli1.ppp[1].queue 	dropPk:sum(packetBytes) 	0
attr interpolationmode  none
attr source  dropPkByQueue
attr title  "dropped packets, sum(packetBytes)"
scalar multi.cli1.ppp[1].queue 	queueLength:max 	7
attr interpolationmode  sample-hold
attr title  "queue length, max"
scalar multi.cli1.ppp[1].queue 	queueLength:timeavg 	2.5831177899092
attr interpolationmode  sample-hold
attr title  "queue length, timeavg"
scalar multi.cli1.ppp[1].queue 	rcvdPk:count 	710
attr interpolationmode  none
attr title  "received packets, count"
scalar multi.cli1.ppp[1].queue 	rcvdPk:sum(packetBytes) 	3004896
attr interpolationmode  none
attr title  "received packets, sum(packetBytes)"
scalar multi.cli1.ppp[1].ppp 	txState:timeavg 	0.79693415082292
attr interpolationmode  sample-hold
attr title  "tx state, timeavg"
scalar multi.cli1.ppp[1].ppp 	droppedPkIfaceDown:count 	0
attr interpolationmode  none
attr source  dropPkIfaceDown
attr title  "packets dropped/interface down, count"
scalar multi.cli1.ppp[1].ppp 	droppedPkIfaceDown:sum(packetBytes) 	0
attr interpolationmode  none
attr source  dropPkIfaceDown
attr title  "packets dropped/interface down, sum(packetBytes)"
scalar multi.cli1.ppp[1].ppp 	droppedPkBitError:count 	0
attr interpolationmode  none
attr source  dropPkBitError
attr title  "packets dropped/bit error, count"
scalar multi.cli1.ppp[1].ppp 	droppedPkBitError:sum(packetBytes) 	0
attr interpolationmode  none
attr source  dropPkBitError
attr title  "packets dropped/bit error, sum(packetBytes)"
scalar multi.cli1.ppp[1].ppp 	rxPkOk:count 	325
attr interpolationmode  none
attr source  rxPkOk
attr title  "packets received OK, count"
scalar multi.cli1.ppp[1].ppp 	rxPkOk:sum(packetBytes) 	18963
attr interpolationmode  none
attr source  rxPkOk
attr title  "packets received OK, sum(packetBytes)"
scalar multi.cli1.ppp[1].ppp 	txPk:count 	710
attr interpolationmode  none
attr source  packetSentToLower
attr title  "packets transmitted, count"
scalar multi.cli1.ppp[1].ppp 	txPk:sum(packetBytes) 	3009866
attr interpolationmode  none
attr source  packetSentToLower
attr title  "packets transmitted, sum(packetBytes)"
scalar multi.cli1.ppp[1].ppp 	rcvdPkFromHL:count 	710
attr interpolationmode  none
attr source  packetReceivedFromUpper
attr title  "packets received from higher layer, count"
scalar multi.cli1.ppp[1].ppp 	rcvdPkFromHL:sum(packetBytes) 	3004896
attr interpolationmode  none
attr source  packetReceivedFromUpper
attr title  "packets received from higher layer, sum(packetBytes)"
scalar multi.cli1.ppp[1].ppp 	passedUpPk:count 	325
attr interpolationmode  none
attr source  packetSentToUpper
attr title  "packets passed to higher layer, count"
scalar multi.cli1.ppp[1].ppp 	passedUpPk:sum(packetBytes) 	16688
attr interpolationmode  none
attr source  packetSentToUpper
attr title  "packets passed to higher layer, sum(packetBytes)"
scalar multi.cli1.sctpApp[0] 	echoedPk:count 	0
attr interpolationmode  none
attr source  echoedPk
attr title  "packets echoed, count"
scalar multi.cli1.sctpApp[0] 	echoedPk:sum(packetBytes) 	0
attr interpolationmode  none
attr source  echoedPk
attr title  "packets echoed, sum(packetBytes)"
scalar multi.cli1.sctpApp[0] 	rcvdPk:count 	0
attr interpolationmode  none
attr source  rcvdPk
attr title  "packets received, count"
scalar multi.cli1.sctpApp[0] 	rcvdPk:sum(packetBytes) 	0
attr interpolationmode  none
attr source  rcvdPk
attr title  "packets received, sum(packetBytes)"
scalar multi.cli1.sctpApp[0] 	sentPk:count 	4500
attr interpolationmode  none
attr source  sentPk
attr title  "packets sent, count"
scalar multi.cli1.sctpApp[0] 	sentPk:sum(packetBytes) 	6300000
attr interpolationmode  none
attr source  sentPk
attr title  "packets sent, sum(packetBytes)"
scalar multi.cli1.sctp 	"Association Lifetime" 	118.960448
scalar multi.cli1.sctp 	"Acked Bytes" 	5992000
scalar multi.cli1.sctp 	"Throughput [bit/s]" 	402957.46028125
scalar multi.cli1.sctp 	"Transmitted Bytes" 	6160000
scalar multi.cli1.sctp 	"Fast RTX" 	32
scalar multi.cli1.sctp 	"Timer-Based RTX" 	43
scalar multi.cli1.sctp 	"Duplicate Acks" 	0
scalar multi.cli1.sctp 	"Packets Received" 	778
scalar multi.cli1.sctp 	"Packets Dropped" 	0
scalar multi.cli1.sctp 	"Sum of R Gap Ranges" 	13508
scalar multi.cli1.sctp 	"Sum of NR Gap Ranges" 	0
scalar multi.cli1.sctp 	"Overfull SACKs" 	0
scalar multi.cli1.sctp 	"Drops Because New TSN Greater Than Highest TSN" 	0
scalar multi.cli1.sctp 	"Drops Because No Room In Buffer" 	0
scalar multi.cli1.sctp 	"Chunks Reneged" 	0
scalar multi.cli1.sctp 	sackPeriod 	0.2
scalar multi.cli1.sctp 	"Number of AUTH chunks sent" 	0
scalar multi.cli1.sctp 	"Number of AUTH chunks accepted" 	0
scalar multi.cli1.sctp 	"Number of AUTH chunks rejected" 	0
scalar multi.cli1.sctp 	"Number of StreamReset requests sent" 	0
scalar multi.cli1.sctp 	"Number of StreamReset requests performed" 	0
scalar multi.cli1.sctp 	"Number of PacketDrop Reports" 	0
scalar multi.cli1.sctp 	RTXMethod 	0
scalar multi.srv1.networkLayer.arp 	failedARPResolution:count 	0
attr title  "ARP failed resolutions, count"
scalar multi.srv1.networkLayer.arp 	completedARPResolution:count 	0
attr title  "ARP completed resolutions, count"
scalar multi.srv1.networkLayer.arp 	initiatedARPResolution:count 	0
attr title  "ARP initiated resolutions, count"
scalar multi.srv1.networkLayer.arp 	sentReply:count 	0
attr title  "ARP replies sent, count"
scalar multi.srv1.networkLayer.arp 	sentReq:count 	0
attr title  "ARP request sent, count"
scalar multi.srv1.lo0.lo 	droppedPkBitError:count 	0
attr interpolationmode  none
attr source  dropPkBitError
attr title  "packets dropped/bit error, count"
scalar multi.srv1.lo0.lo 	droppedPkBitError:sum(packetBytes) 	0
attr interpolationmode  none
attr source  dropPkBitError
attr title  "packets dropped/bit error, sum(packetBytes)"
scalar multi.srv1.lo0.lo 	rcvdPkFromHL:count 	0
attr interpolationmode  none
attr source  packetReceivedFromUpper
attr title  "packets received from higher layer, count"
scalar multi.srv1.lo0.lo 	rcvdPkFromHL:sum(packetBytes) 	0
attr interpolationmode  none
attr source  packetReceivedFromUpper
attr title  "packets received from higher layer, sum(packetBytes)"
scalar multi.srv1.lo0.lo 	passedUpPk:count 	0
attr interpolationmode  none
attr source  packetSentToUpper
attr title  "packets passed to higher layer, count"
scalar multi.srv1.lo0.lo 	passedUpPk:sum(packetBytes) 	0
attr interpolationmode  none
attr source  packetSentToUpper
attr title  "packets passed to higher layer, sum(packetBytes)"
statistic multi.srv1.ppp[0].queue 	queueingTime:histogram
field count 454
field mean 3.488986784141e-05
field stddev 0.00031835443509244
field sum 0.01584
field sqrsum 4.6464e-05
field min 0
field max 0.00352
attr interpolationmode  none
attr title  "queueing time, histogram"
bin	-INF	0
bin	-0.00176	0
bin	-0.0015253333333333	0
bin	-0.0012906666666667	0
bin	-0.001056	0
bin	-0.00082133333333333	0
bin	-0.00058666666666667	0
bin	-0.000352	0
bin	-0.00011733333333333	448
bin	0.00011733333333333	0
bin	0.000352	0
bin	0.00058666666666667	0
bin	0.00082133333333333	0
bin	0.001056	0
bin	0.0012906666666667	0
bin	0.0015253333333333	0
bin	0.00176	3
bin	0.0019946666666667	0
bin	0.0022293333333333	0
bin	0.002464	0
bin	0.0026986666666667	0
bin	0.0029333333333333	0
bin	0.003168	0
bin	0.0034026666666667	3
bin	0.0036373333333333	0
bin	0.003872	0
bin	0.0041066666666667	0
bin	0.0043413333333333	0
bin	0.004576	0
bin	0.0048106666666667	0
bin	0.0050453333333333	0
bin	0.00528	0
scalar multi.srv1.ppp[0].queue 	dropPk:count 	0
attr interpolationmode  none
attr source  dropPkByQueue
attr title  "dropped packets, count"
scalar multi.srv1.ppp[0].queue 	dropPk:sum(packetBytes) 	0
attr interpolationmode  none
attr source  dropPkByQueue
attr title  "dropped packets, sum(packetBytes)"
scalar multi.srv1.ppp[0].queue 	queueLength:max 	2
attr interpolationmode  sample-hold
attr title  "queue length, max"
scalar multi.srv1.ppp[0].queue 	queueLength:timeavg 	0.00013106311199812
attr interpolationmode  sample-hold
attr title  "queue length, timeavg"
scalar multi.srv1.ppp[0].queue 	rcvdPk:count 	454
attr interpolationmode  none
attr title  "received packets, count"
scalar multi.srv1.ppp[0].queue 	rcvdPk:sum(packetBytes) 	23956
attr interpolationmode  none
attr title  "received packets, sum(packetBytes)"
scalar multi.srv1.ppp[0].ppp 	txState:timeavg 	0.0071843767292062
attr interpolationmode  sample-hold
attr title  "tx state, timeavg"
scalar multi.srv1.ppp[0].ppp 	droppedPkIfaceDown:count 	0
attr interpolationmode  none
attr source  dropPkIfaceDown
attr title  "packets dropped/interface down, count"
scalar multi.srv1.ppp[0].ppp 	droppedPkIfaceDown:sum(packetBytes) 	0
attr interpolationmode  none
attr source  dropPkIfaceDown
attr title  "packets dropped/interface down, sum(packetBytes)"
scalar multi.srv1.ppp[0].ppp 	droppedPkBitError:count 	0
attr interpolationmode  none
attr source  dropPkBitError
attr title  "packets dropped/bit error, count"
scalar multi.srv1.ppp[0].ppp 	droppedPkBitError:sum(packetBytes) 	0
attr interpolationmode  none
attr source  dropPkBitError
attr title  "packets dropped/bit error, sum(packetBytes)"
scalar multi.srv1.ppp[0].ppp 	rxPkOk:count 	779
attr interpolationmode  none
attr source  rxPkOk
attr title  "packets received OK, count"
scalar multi.srv1.ppp[0].ppp 	rxPkOk:sum(packetBytes) 	3274653
attr interpolationmode  none
attr source  rxPkOk
attr title  "packets received OK, sum(packetBytes)"
scalar multi.srv1.ppp[0].ppp 	txPk:count 	454
attr interpolationmode  none
attr source  packetSentToLower
attr title  "packets transmitted, count"
scalar multi.srv1.ppp[0].ppp 	txPk:sum(packetBytes) 	27134
attr interpolationmode  none
attr source  packetSentToLower
attr title  "packets transmitted, sum(packetBytes)"
scalar multi.srv1.ppp[0].ppp 	rcvdPkFromHL:count 	454
attr interpolationmode  none
attr source  packetReceivedFromUpper
attr title  "packets received from higher layer, count"
scalar multi.srv1.ppp[0].ppp 	rcvdPkFromHL:sum(packetBytes) 	23956
attr interpolationmode  none
attr source  packetReceivedFromUpper
attr title  "packets received from higher layer, sum(packetBytes)"
scalar multi.srv1.ppp[0].ppp 	passedUpPk:count 	779
attr interpolationmode  none
attr source  packetSentToUpper
attr title  "packets passed to higher layer, count"
scalar multi.srv1.ppp[0].ppp 	passedUpPk:sum(packetBytes) 	3269200
attr interpolationmode  none
attr source  packetSentToUpper
attr title  "packets passed to higher layer, sum(packetBytes)"
statistic multi.srv1.ppp[1].queue 	queueingTime:histogram
field count 325
field mean 4.992e-05
field stddev 0.00033390093304215
field sum 0.016224
field sqrsum 3.6932608e-05
field min 0
field max 0.003776
attr interpolationmode  none
attr title  "queueing time, histogram"
bin	-INF	0
bin	-0.001008	0
bin	-0.0008736	0
bin	-0.0007392	0
bin	-0.0006048	0
bin	-0.0004704	0
bin	-0.000336	0
bin	-0.0002016	0
bin	-6.72e-05	317
bin	6.72e-05	0
bin	0.0002016	0
bin	0.000336	0
bin	0.0004704	0
bin	0.0006048	0
bin	0.0007392	0
bin	0.0008736	0
bin	0.001008	1
bin	0.0011424	0
bin	0.0012768	0
bin	0.0014112	0
bin	0.0015456	0
bin	0.00168	1
bin	0.0018144	4
bin	0.0019488	1
bin	0.0020832	0
bin	0.0022176	0
bin	0.002352	0
bin	0.0024864	0
bin	0.0026208	0
bin	0.0027552	0
bin	0.0028896	0
bin	0.003024	1
scalar multi.srv1.ppp[1].queue 	dropPk:count 	0
attr interpolationmode  none
attr source  dropPkByQueue
attr title  "dropped packets, count"
scalar multi.srv1.ppp[1].queue 	dropPk:sum(packetBytes) 	0
attr interpolationmode  none
attr source  dropPkByQueue
attr title  "dropped packets, sum(packetBytes)"
scalar multi.srv1.ppp[1].queue 	queueLength:max 	2
attr interpolationmode  sample-hold
attr title  "queue length, max"
scalar multi.srv1.ppp[1].queue 	queueLength:timeavg 	0.00013424039956171
attr interpolationmode  sample-hold
attr title  "queue length, timeavg"
scalar multi.srv1.ppp[1].queue 	rcvdPk:count 	325
attr interpolationmode  none
attr title  "received packets, count"
scalar multi.srv1.ppp[1].queue 	rcvdPk:sum(packetBytes) 	16688
attr interpolationmode  none
attr title  "received packets, sum(packetBytes)"
scalar multi.srv1.ppp[1].ppp 	txState:timeavg 	0.0050209086723645
attr interpolationmode  sample-hold
attr title  "tx state, timeavg"
scalar multi.srv1.ppp[1].ppp 	droppedPkIfaceDown:count 	0
attr interpolationmode  none
attr source  dropPkIfaceDown
attr title  "packets dropped/interface down, count"
scalar multi.srv1.ppp[1].ppp 	droppedPkIfaceDown:sum(packetBytes) 	0
attr interpolationmode  none
attr source  dropPkIfaceDown
attr title  "packets dropped/interface down, sum(packetBytes)"
scalar multi.srv1.ppp[1].ppp 	droppedPkBitError:count 	0
attr interpolationmode  none
attr source  dropPkBitError
attr title  "packets dropped/bit error, count"
scalar multi.srv1.ppp[1].ppp 	droppedPkBitError:sum(packetBytes) 	0
attr interpolationmode  none
attr source  dropPkBitError
attr title  "packets dropped/bit error, sum(packetBytes)"
scalar multi.srv1.ppp[1].ppp 	rxPkOk:count 	709
attr interpolationmode  none
attr source  rxPkOk
attr title  "packets received OK, count"
scalar multi.srv1.ppp[1].ppp 	rxPkOk:sum(packetBytes) 	3005579
attr interpolationmode  none
attr source  rxPkOk
attr title  "packets received OK, sum(packetBytes)"
scalar multi.srv1.ppp[1].ppp 	txPk:count 	325
attr interpolationmode  none
attr source  packetSentToLower
attr title  "packets transmitted, count"
scalar multi.srv1.ppp[1].ppp 	txPk:sum(packetBytes) 	18963
attr interpolationmode  none
attr source  packetSentToLower
attr title  "packets transmitted, sum(packetBytes)"
scalar multi.srv1.ppp[1].ppp 	rcvdPkFromHL:count 	325
attr interpolationmode  none
attr source  packetReceivedFromUpper
attr title  "packets received from higher layer, count"
scalar multi.srv1.ppp[1].ppp 	rcvdPkFromHL:sum(packetBytes) 	16688
attr interpolationmode  none
attr source  packetReceivedFromUpper
attr title  "packets received from higher layer, sum(packetBytes)"
scalar multi.srv1.ppp[1].ppp 	passedUpPk:count 	709
attr interpolationmode  none
attr source  packetSentToUpper
attr title  "packets passed to higher layer, count"
scalar multi.srv1.ppp[1].ppp 	passedUpPk:sum(packetBytes) 	3000616
attr interpolationmode  none
attr source  packetSentToUpper
attr title  "packets passed to higher layer, sum(packetBytes)"
scalar multi.srv1.sctpApp[0] 	"bytes rcvd" 	6055000
scalar multi.srv1.sctpApp[0] 	throughput 	404774.08555226
scalar multi.srv1.sctp 	"Bytes received on stream 0 of assoc 2" 	0
scalar multi.srv1.sctp 	"Bytes received on stream 1 of assoc 2" 	0
scalar multi.srv1.sctp 	"Bytes received on stream 2 of assoc 2" 	0
scalar multi.srv1.sctp 	"Bytes received on stream 3 of assoc 2" 	0
scalar multi.srv1.sctp 	"Bytes received on stream 4 of assoc 2" 	0
scalar multi.srv1.sctp 	"Bytes received on stream 5 of assoc 2" 	0
scalar multi.srv1.sctp 	"Bytes received on stream 6 of assoc 2" 	0
scalar multi.srv1.sctp 	"Bytes received on stream 7 of assoc 2" 	0
scalar multi.srv1.sctp 	"Bytes received on stream 8 of assoc 2" 	0
scalar multi.srv1.sctp 	"Bytes received on stream 9 of assoc 2" 	0
scalar multi.srv1.sctp 	"Bytes received on stream 10 of assoc 2" 	0
scalar multi.srv1.sctp 	"Bytes received on stream 11 of assoc 2" 	0
scalar multi.srv1.sctp 	"Bytes received on stream 12 of assoc 2" 	0
scalar multi.srv1.sctp 	"Bytes received on stream 13 of assoc 2" 	0
scalar multi.srv1.sctp 	"Bytes received on stream 14 of assoc 2" 	0
scalar multi.srv1.sctp 	"Bytes received on stream 15 of assoc 2" 	0
scalar multi.srv1.sctp 	"Bytes received on stream 16 of assoc 2" 	0
scalar multi.srv1.sctp 	"Blocking TSNs Moved" 	0
scalar multi.srv1.sctp 	"Association Lifetime" 	119.81550075155
scalar multi.srv1.sctp 	"Acked Bytes" 	0
scalar multi.srv1.sctp 	"Throughput [bit/s]" 	0
scalar multi.srv1.sctp 	"Transmitted Bytes" 	0
scalar multi.srv1.sctp 	"Fast RTX" 	0
scalar multi.srv1.sctp 	"Timer-Based RTX" 	0
scalar multi.srv1.sctp 	"Duplicate Acks" 	0
scalar multi.srv1.sctp 	"Packets Received" 	1488
scalar multi.srv1.sctp 	"Packets Dropped" 	0
scalar multi.srv1.sctp 	"Sum of R Gap Ranges" 	0
scalar multi.srv1.sctp 	"Sum of NR Gap Ranges" 	0
scalar multi.srv1.sctp 	"Overfull SACKs" 	0
scalar multi.srv1.sctp 	"Drops Because New TSN Greater Than Highest TSN" 	50
scalar multi.srv1.sctp 	"Drops Because No Room In Buffer" 	0
scalar multi.srv1.sctp 	"Chunks Reneged" 	19
scalar multi.srv1.sctp 	sackPeriod 	0.2
scalar multi.srv1.sctp 	"Number of AUTH chunks sent" 	0
scalar multi.srv1.sctp 	"Number of AUTH chunks accepted" 	0
scalar multi.srv1.sctp 	"Number of AUTH chunks rejected" 	0
scalar multi.srv1.sctp 	"Number of StreamReset requests sent" 	0
scalar multi.srv1.sctp 	"Number of StreamReset requests performed" 	0
scalar multi.srv1.sctp 	"Number of PacketDrop Reports" 	0
scalar multi.srv1.sctp 	"Average End to End Delay" 	0.4631936
scalar multi.srv1.sctp 	RTXMethod 	0
scalar multi.router1.networkLayer.arp 	failedARPResolution:count 	0
attr title  "ARP failed resolutions, count"
scalar multi.router1.networkLayer.arp 	completedARPResolution:count 	0
attr title  "ARP completed resolutions, count"
scalar multi.router1.networkLayer.arp 	initiatedARPResolution:count 	0
attr title  "ARP initiated resolutions, count"
scalar multi.router1.networkLayer.arp 	sentReply:count 	0
attr title  "ARP replies sent, count"
scalar multi.router1.networkLayer.arp 	sentReq:count 	0
attr title  "ARP request sent, count"
scalar multi.router1.lo0.lo 	droppedPkBitError:count 	0
attr interpolationmode  none
attr source  dropPkBitError
attr title  "packets dropped/bit error, count"
scalar multi.router1.lo0.lo 	droppedPkBitError:sum(packetBytes) 	0
attr interpolationmode  none
attr source  dropPkBitError
attr title  "packets dropped/bit error, sum(packetBytes)"
scalar multi.router1.lo0.lo 	rcvdPkFromHL:count 	0
attr interpolationmode  none
attr source  packetReceivedFromUpper
attr title  "packets received from higher layer, count"
scalar multi.router1.lo0.lo 	rcvdPkFromHL:sum(packetBytes) 	0
attr interpolationmode  none
attr source  packetReceivedFromUpper
attr title  "packets received from higher layer, sum(packetBytes)"
scalar multi.router1.lo0.lo 	passedUpPk:count 	0
attr interpolationmode  none
attr source  packetSentToUpper
attr title  "packets passed to higher layer, count"
scalar multi.router1.lo0.lo 	passedUpPk:sum(packetBytes) 	0
attr interpolationmode  none
attr source  packetSentToUpper
attr title  "packets passed to higher layer, sum(packetBytes)"
statistic multi.router1.ppp[0].queue 	queueingTime:histogram
field count 453
field mean 0
field stddev 0
field sum 0
field sqrsum 0
field min 0
field max 0
attr interpolationmode  none
attr title  "queueing time, histogram"
bin	-INF	0
bin	-0.5	0
bin	-0.46666666666667	0
bin	-0.43333333333333	0
bin	-0.4	0
bin	-0.36666666666667	0
bin	-0.33333333333333	0
bin	-0.3	0
bin	-0.26666666666667	0
bin	-0.23333333333333	0
bin	-0.2	0
bin	-0.16666666666667	0
bin	-0.13333333333333	0
bin	-0.1	0
bin	-0.066666666666667	0
bin	-0.033333333333333	0
bin	0	453
bin	0.033333333333333	0
bin	0.066666666666667	0
bin	0.1	0
bin	0.13333333333333	0
bin	0.16666666666667	0
bin	0.2	0
bin	0.23333333333333	0
bin	0.26666666666667	0
bin	0.3	0
bin	0.33333333333333	0
bin	0.36666666666667	0
bin	0.4	0
bin	0.43333333333333	0
bin	0.46666666666667	0
bin	0.5	0
scalar multi.router1.ppp[0].queue 	dropPk:count 	0
attr interpolationmode  none
attr source  dropPkByQueue
attr title  "dropped packets, count"
scalar multi.router1.ppp[0].queue 	dropPk:sum(packetBytes) 	0
attr interpolationmode  none
attr source  dropPkByQueue
attr title  "dropped packets, sum(packetBytes)"
scalar multi.router1.ppp[0].queue 	queueLength:max 	0
attr interpolationmode  sample-hold
attr title  "queue length, max"
scalar multi.router1.ppp[0].queue 	queueLength:timeavg 	0
attr interpolationmode  sample-hold
attr title  "queue length, timeavg"
scalar multi.router1.ppp[0].queue 	rcvdPk:count 	453
attr interpolationmode  none
attr title  "received packets, count"
scalar multi.router1.ppp[0].queue 	rcvdPk:sum(packetBytes) 	23908
attr interpolationmode  none
attr title  "received packets, sum(packetBytes)"
scalar multi.router1.ppp[0].ppp 	txState:timeavg 	0.0071698141612065
attr interpolationmode  sample-hold
attr title  "tx state, timeavg"
scalar multi.router1.ppp[0].ppp 	droppedPkIfaceDown:count 	0
attr interpolationmode  none
attr source  dropPkIfaceDown
attr title  "packets dropped/interface down, count"
scalar multi.router1.ppp[0].ppp 	droppedPkIfaceDown:sum(packetBytes) 	0
attr interpolationmode  none
attr source  dropPkIfaceDown
attr title  "packets dropped/interface down, sum(packetBytes)"
scalar multi.router1.ppp[0].ppp 	droppedPkBitError:count 	0
attr interpolationmode  none
attr source  dropPkBitError
attr title  "packets dropped/bit error, count"
scalar multi.router1.ppp[0].ppp 	droppedPkBitError:sum(packetBytes) 	0
attr interpolationmode  none
attr source  dropPkBitError
attr title  "packets dropped/bit error, sum(packetBytes)"
scalar multi.router1.ppp[0].ppp 	rxPkOk:count 	780
attr interpolationmode  none
attr source  rxPkOk
attr title  "packets received OK, count"
scalar multi.router1.ppp[0].ppp 	rxPkOk:sum(packetBytes) 	3278940
attr interpolationmode  none
attr source  rxPkOk
attr title  "packets received OK, sum(packetBytes)"
scalar multi.router1.ppp[0].ppp 	txPk:count 	453
attr interpolationmode  none
attr source  packetSentToLower
attr title  "packets transmitted, count"
scalar multi.router1.ppp[0].ppp 	txPk:sum(packetBytes) 	27079
attr interpolationmode  none
attr source  packetSentToLower
attr title  "packets transmitted, sum(packetBytes)"
scalar multi.router1.ppp[0].ppp 	rcvdPkFromHL:count 	453
attr interpolationmode  none
attr source  packetReceivedFromUpper
attr title  "packets received from higher layer, count"
scalar multi.router1.ppp[0].ppp 	rcvdPkFromHL:sum(packetBytes) 	23908
attr interpolationmode  none
attr source  packetReceivedFromUpper
attr title  "packets received from higher layer, sum(packetBytes)"
scalar multi.router1.ppp[0].ppp 	passedUpPk:count 	780
attr interpolationmode  none
attr source  packetSentToUpper
attr title  "packets passed to higher layer, count"
scalar multi.router1.ppp[0].ppp 	passedUpPk:sum(packetBytes) 	3273480
attr interpolationmode  none
attr source  packetSentToUpper
attr title  "packets passed to higher layer, sum(packetBytes)"
statistic multi.router1.ppp[1].queue 	queueingTime:histogram
field count 780
field mean 0.0018561641025641
field stddev 0.015090718904901
field sum 1.447808
field sqrsum 0.180088881152
field min 0
field max 0.135808
attr interpolationmode  none
attr title  "queueing time, histogram"
bin	-INF	0
bin	-0.5	0
bin	-0.46666666666667	0
bin	-0.43333333333333	0
bin	-0.4	0
bin	-0.36666666666667	0
bin	-0.33333333333333	0
bin	-0.3	0
bin	-0.26666666666667	0
bin	-0.23333333333333	0
bin	-0.2	0
bin	-0.16666666666667	0
bin	-0.13333333333333	0
bin	-0.1	0
bin	-0.066666666666667	0
bin	-0.033333333333333	0
bin	0	768
bin	0.033333333333333	0
bin	0.066666666666667	4
bin	0.1	0
bin	0.13333333333333	8
bin	0.16666666666667	0
bin	0.2	0
bin	0.23333333333333	0
bin	0.26666666666667	0
bin	0.3	0
bin	0.33333333333333	0
bin	0.36666666666667	0
bin	0.4	0
bin	0.43333333333333	0
bin	0.46666666666667	0
bin	0.5	0
scalar multi.router1.ppp[1].queue 	dropPk:count 	0
attr interpolationmode  none
attr source  dropPkByQueue
attr title  "dropped packets, count"
scalar multi.router1.ppp[1].queue 	dropPk:sum(packetBytes) 	0
attr interpolationmode  none
attr source  dropPkByQueue
attr title  "dropped packets, sum(packetBytes)"
scalar multi.router1.ppp[1].queue 	queueLength:max 	5
attr interpolationmode  sample-hold
attr title  "queue length, max"
scalar multi.router1.ppp[1].queue 	queueLength:timeavg 	0.011979433210592
attr interpolationmode  sample-hold
attr title  "queue length, timeavg"
scalar multi.router1.ppp[1].queue 	rcvdPk:count 	780
attr interpolationmode  none
attr title  "received packets, count"
scalar multi.router1.ppp[1].queue 	rcvdPk:sum(packetBytes) 	3273480
attr interpolationmode  none
attr title  "received packets, sum(packetBytes)"
scalar multi.router1.ppp[1].ppp 	txState:timeavg 	0.8681779403134
attr interpolationmode  sample-hold
attr title  "tx state, timeavg"
scalar multi.router1.ppp[1].ppp 	droppedPkIfaceDown:count 	0
attr interpolationmode  none
attr source  dropPkIfaceDown
attr title  "packets dropped/interface down, count"
scalar multi.router1.ppp[1].ppp 	droppedPkIfaceDown:sum(packetBytes) 	0
attr interpolationmode  none
attr source  dropPkIfaceDown
attr title  "packets dropped/interface down, sum(packetBytes)"
scalar multi.router1.ppp[1].ppp 	droppedPkBitError:count 	1
attr interpolationmode  none
attr source  dropPkBitError
attr title  "packets dropped/bit error, count"
scalar multi.router1.ppp[1].ppp 	droppedPkBitError:sum(packetBytes) 	55
attr interpolationmode  none
attr source  dropPkBitError
attr title  "packets dropped/bit error, sum(packetBytes)"
scalar multi.router1.ppp[1].ppp 	rxPkOk:count 	453
attr interpolationmode  none
attr source  rxPkOk
attr title  "packets received OK, count"
scalar multi.router1.ppp[1].ppp 	rxPkOk:sum(packetBytes) 	27079
attr interpolationmode  none
attr source  rxPkOk
attr title  "packets received OK, sum(packetBytes)"
scalar multi.router1.ppp[1].ppp 	txPk:count 	780
attr interpolationmode  none
attr source  packetSentToLower
attr title  "packets transmitted, count"
scalar multi.router1.ppp[1].ppp 	txPk:sum(packetBytes) 	3278940
attr interpolationmode  none
attr source  packetSentToLower
attr title  "packets transmitted, sum(packetBytes)"
scalar multi.router1.ppp[1].ppp 	rcvdPkFromHL:count 	780
attr interpolationmode  none
attr source  packetReceivedFromUpper
attr title  "packets received from higher layer, count"
scalar multi.router1.ppp[1].ppp 	rcvdPkFromHL:sum(packetBytes) 	3273480
attr interpolationmode  none
attr source  packetReceivedFromUpper
attr title  "packets received from higher layer, sum(packetBytes)"
scalar multi.router1.ppp[1].ppp 	passedUpPk:count 	453
attr interpolationmode  none
attr source  packetSentToUpper
attr title  "packets passed to higher layer, count"
scalar multi.router1.ppp[1].ppp 	passedUpPk:sum(packetBytes) 	23908
attr interpolationmode  none
attr source  packetSentToUpper
attr title  "packets passed to higher layer, sum(packetBytes)"
scalar multi.router2.networkLayer.arp 	failedARPResolution:count 	0
attr title  "ARP failed resolutions, count"
scalar multi.router2.networkLayer.arp 	completedARPResolution:count 	0
attr title  "ARP completed resolutions, count"
scalar multi.router2.networkLayer.arp 	initiatedARPResolution:count 	0
attr title  "ARP initiated resolutions, count"
scalar multi.router2.networkLayer.arp 	sentReply:count 	0
attr title  "ARP replies sent, count"
scalar multi.router2.networkLayer.arp 	sentReq:count 	0
attr title  "ARP request sent, count"
scalar multi.router2.lo0.lo 	droppedPkBitError:count 	0
attr interpolationmode  none
attr source  dropPkBitError
attr title  "packets dropped/bit error, count"
scalar multi.router2.lo0.lo 	droppedPkBitError:sum(packetBytes) 	0
attr interpolationmode  none
attr source  dropPkBitError
attr title  "packets dropped/bit error, sum(packetBytes)"
scalar multi.router2.lo0.lo 	rcvdPkFromHL:count 	0
attr interpolationmode  none
attr source  packetReceivedFromUpper
attr title  "packets received from higher layer, count"
scalar multi.router2.lo0.lo 	rcvdPkFromHL:sum(packetBytes) 	0
attr interpolationmode  none
attr source  packetReceivedFromUpper
attr title  "packets received from higher layer, sum(packetBytes)"
scalar multi.router2.lo0.lo 	passedUpPk:count 	0
attr interpolationmode  none
attr source  packetSentToUpper
attr title  "packets passed to higher layer, count"
scalar multi.router2.lo0.lo 	passedUpPk:sum(packetBytes) 	0
attr interpolationmode  none
attr source  packetSentToUpper
attr title  "packets passed to higher layer, sum(packetBytes)"
statistic multi.router2.ppp[0].queue 	queueingTime:histogram
field count 454
field mean 0
field stddev 0
field sum 0
field sqrsum 0
field min 0
field max 0
attr interpolationmode  none
attr title  "queueing time, histogram"
bin	-INF	0
bin	-0.5	0
bin	-0.46666666666667	0
bin	-0.43333333333333	0
bin	-0.4	0
bin	-0.36666666666667	0
bin	-0.33333333333333	0
bin	-0.3	0
bin	-0.26666666666667	0
bin	-0.23333333333333	0
bin	-0.2	0
bin	-0.16666666666667	0
bin	-0.13333333333333	0
bin	-0.1	0
bin	-0.066666666666667	0
bin	-0.033333333333333	0
bin	0	454
bin	0.033333333333333	0
bin	0.066666666666667	0
bin	0.1	0
bin	0.13333333333333	0
bin	0.16666666666667	0
bin	0.2	0
bin	0.23333333333333	0
bin	0.26666666666667	0
bin	0.3	0
bin	0.33333333333333	0
bin	0.36666666666667	0
bin	0.4	0
bin	0.43333333333333	0
bin	0.46666666666667	0
bin	0.5	0
scalar multi.router2.ppp[0].queue 	dropPk:count 	0
attr interpolationmode  none
attr source  dropPkByQueue
attr title  "dropped packets, count"
scalar multi.router2.ppp[0].queue 	dropPk:sum(packetBytes) 	0
attr interpolationmode  none
attr source  dropPkByQueue
attr title  "dropped packets, sum(packetBytes)"
scalar multi.router2.ppp[0].queue 	queueLength:max 	0
attr interpolationmode  sample-hold
attr title  "queue length, max"
scalar multi.router2.ppp[0].queue 	queueLength:timeavg 	0
attr interpolationmode  sample-hold
attr title  "queue length, timeavg"
scalar multi.router2.ppp[0].queue 	rcvdPk:count 	454
attr interpolationmode  none
attr title  "received packets, count"
scalar multi.router2.ppp[0].queue 	rcvdPk:sum(packetBytes) 	23956
attr interpolationmode  none
attr title  "received packets, sum(packetBytes)"
scalar multi.router2.ppp[0].ppp 	txState:timeavg 	0.0071843767292062
attr interpolationmode  sample-hold
attr title  "tx state, timeavg"
scalar multi.router2.ppp[0].ppp 	droppedPkIfaceDown:count 	0
attr interpolationmode  none
attr source  dropPkIfaceDown
attr title  "packets dropped/interface down, count"
scalar multi.router2.ppp[0].ppp 	droppedPkIfaceDown:sum(packetBytes) 	0
attr interpolationmode  none
attr source  dropPkIfaceDown
attr title  "packets dropped/interface down, sum(packetBytes)"
scalar multi.router2.ppp[0].ppp 	droppedPkBitError:count 	1
attr interpolationmode  none
attr source  dropPkBitError
attr title  "packets dropped/bit error, count"
scalar multi.router2.ppp[0].ppp 	droppedPkBitError:sum(packetBytes) 	4287
attr interpolationmode  none
attr source  dropPkBitError
attr title  "packets dropped/bit error, sum(packetBytes)"
scalar multi.router2.ppp[0].ppp 	rxPkOk:count 	779
attr interpolationmode  none
attr source  rxPkOk
attr title  "packets received OK, count"
scalar multi.router2.ppp[0].ppp 	rxPkOk:sum(packetBytes) 	3274653
attr interpolationmode  none
attr source  rxPkOk
attr title  "packets received OK, sum(packetBytes)"
scalar multi.router2.ppp[0].ppp 	txPk:count 	454
attr interpolationmode  none
attr source  packetSentToLower
attr title  "packets transmitted, count"
scalar multi.router2.ppp[0].ppp 	txPk:sum(packetBytes) 	27134
attr interpolationmode  none
attr source  packetSentToLower
attr title  "packets transmitted, sum(packetBytes)"
scalar multi.router2.ppp[0].ppp 	rcvdPkFromHL:count 	454
attr interpolationmode  none
attr source  packetReceivedFromUpper
attr title  "packets received from higher layer, count"
scalar multi.router2.ppp[0].ppp 	rcvdPkFromHL:sum(packetBytes) 	23956
attr interpolationmode  none
attr source  packetReceivedFromUpper
attr title  "packets received from higher layer, sum(packetBytes)"
scalar multi.router2.ppp[0].ppp 	passedUpPk:count 	779
attr interpolationmode  none
attr source  packetSentToUpper
attr title  "packets passed to higher layer, count"
scalar multi.router2.ppp[0].ppp 	passedUpPk:sum(packetBytes) 	3269200
attr interpolationmode  none
attr source  packetSentToUpper
attr title  "packets passed to higher layer, sum(packetBytes)"
statistic multi.router2.ppp[1].queue 	queueingTime:histogram
field count 779
field mean 0.0020326777920411
field stddev 0.015842679543837
field sum 1.583456
field sqrsum 0.198489261056
field min 0
field max 0.135808
attr interpolationmode  none
attr title  "queueing time, histogram"
bin	-INF	0
bin	-0.5	0
bin	-0.46666666666667	0
bin	-0.43333333333333	0
bin	-0.4	0
bin	-0.36666666666667	0
bin	-0.33333333333333	0
bin	-0.3	0
bin	-0.26666666666667	0
bin	-0.23333333333333	0
bin	-0.2	0
bin	-0.16666666666667	0
bin	-0.13333333333333	0
bin	-0.1	0
bin	-0.066666666666667	0
bin	-0.033333333333333	0
bin	0	766
bin	0.033333333333333	0
bin	0.066666666666667	4
bin	0.1	0
bin	0.13333333333333	9
bin	0.16666666666667	0
bin	0.2	0
bin	0.23333333333333	0
bin	0.26666666666667	0
bin	0.3	0
bin	0.33333333333333	0
bin	0.36666666666667	0
bin	0.4	0
bin	0.43333333333333	0
bin	0.46666666666667	0
bin	0.5	0
scalar multi.router2.ppp[1].queue 	dropPk:count 	0
attr interpolationmode  none
attr source  dropPkByQueue
attr title  "dropped packets, count"
scalar multi.router2.ppp[1].queue 	dropPk:sum(packetBytes) 	0
attr interpolationmode  none
attr source  dropPkByQueue
attr title  "dropped packets, sum(packetBytes)"
scalar multi.router2.ppp[1].queue 	queueLength:max 	6
attr interpolationmode  sample-hold
attr title  "queue length, max"
scalar multi.router2.ppp[1].queue 	queueLength:timeavg 	0.013101810042431
attr interpolationmode  sample-hold
attr title  "queue length, timeavg"
scalar multi.router2.ppp[1].queue 	rcvdPk:count 	779
attr interpolationmode  none
attr title  "received packets, count"
scalar multi.router2.ppp[1].queue 	rcvdPk:sum(packetBytes) 	3269200
attr interpolationmode  none
attr title  "received packets, sum(packetBytes)"
scalar multi.router2.ppp[1].ppp 	txState:timeavg 	0.8670428543313
attr interpolationmode  sample-hold
attr title  "tx state, timeavg"
scalar multi.router2.ppp[1].ppp 	droppedPkIfaceDown:count 	0
attr interpolationmode  none
attr source  dropPkIfaceDown
attr title  "packets dropped/interface down, count"
scalar multi.router2.ppp[1].ppp 	droppedPkIfaceDown:sum(packetBytes) 	0
attr interpolationmode  none
attr source  dropPkIfaceDown
attr title  "packets dropped/interface down, sum(packetBytes)"
scalar multi.router2.ppp[1].ppp 	droppedPkBitError:count 	0
attr interpolationmode  none
attr source  dropPkBitError
attr title  "packets dropped/bit error, count"
scalar multi.router2.ppp[1].ppp 	droppedPkBitError:sum(packetBytes) 	0
attr interpolationmode  none
attr source  dropPkBitError
attr title  "packets dropped/bit error, sum(packetBytes)"
scalar multi.router2.ppp[1].ppp 	rxPkOk:count 	454
attr interpolationmode  none
attr source  rxPkOk
attr title  "packets received OK, count"
scalar multi.router2.ppp[1].ppp 	rxPkOk:sum(packetBytes) 	27134
attr interpolationmode  none
attr source  rxPkOk
attr title  "packets received OK, sum(packetBytes)"
scalar multi.router2.ppp[1].ppp 	txPk:count 	779
attr interpolationmode  none
attr source  packetSentToLower
attr title  "packets transmitted, count"
scalar multi.router2.ppp[1].ppp 	txPk:sum(packetBytes) 	3274653
attr interpolationmode  none
attr source  packetSentToLower
attr title  "packets transmitted, sum(packetBytes)"
scalar multi.router2.ppp[1].ppp 	rcvdPkFromHL:count 	779
attr interpolationmode  none
attr source  packetReceivedFromUpper
attr title  "packets received from higher layer, count"
scalar multi.router2.ppp[1].ppp 	rcvdPkFromHL:sum(packetBytes) 	3269200
attr interpolationmode  none
attr source  packetReceivedFromUpper
attr title  "packets received from higher layer, sum(packetBytes)"
scalar multi.router2.ppp[1].ppp 	passedUpPk:count 	454
attr interpolationmode  none
attr source  packetSentToUpper
attr title  "packets passed to higher layer, count"
scalar multi.router2.ppp[1].ppp 	passedUpPk:sum(packetBytes) 	23956
attr interpolationmode  none
attr source  packetSentToUpper
attr title  "packets passed to higher layer, sum(packetBytes)"
scalar multi.router3.networkLayer.arp 	failedARPResolution:count 	0
attr title  "ARP failed resolutions, count"
scalar multi.router3.networkLayer.arp 	completedARPResolution:count 	0
attr title  "ARP completed resolutions, count"
scalar multi.router3.networkLayer.arp 	initiatedARPResolution:count 	0
attr title  "ARP initiated resolutions, count"
scalar multi.router3.networkLayer.arp 	sentReply:count 	0
attr title  "ARP replies sent, count"
scalar multi.router3.networkLayer.arp 	sentReq:count 	0
attr title  "ARP request sent, count"
scalar multi.router3.lo0.lo 	droppedPkBitError:count 	0
attr interpolationmode  none
attr source  dropPkBitError
attr title  "packets dropped/bit error, count"
scalar multi.router3.lo0.lo 	droppedPkBitError:sum(packetBytes) 	0
attr interpolationmode  none
attr source  dropPkBitError
attr title  "packets dropped/bit error, sum(packetBytes)"
scalar multi.router3.lo0.lo 	rcvdPkFromHL:count 	0
attr interpolationmode  none
attr source  packetReceivedFromUpper
attr title  "packets received from higher layer, count"
scalar multi.router3.lo0.lo 	rcvdPkFromHL:sum(packetBytes) 	0
attr interpolationmode  none
attr source  packetReceivedFromUpper
attr title  "packets received from higher layer, sum(packetBytes)"
scalar multi.router3.lo0.lo 	passedUpPk:count 	0
attr interpolationmode  none
attr source  packetSentToUpper
attr title  "packets passed to higher layer, count"
scalar multi.router3.lo0.lo 	passedUpPk:sum(packetBytes) 	0
attr interpolationmode  none
attr source  packetSentToUpper
attr title  "packets passed to higher layer, sum(packetBytes)"
statistic multi.router3.ppp[0].queue 	queueingTime:histogram
field count 325
field mean 3.9384615384615e-07
field stddev 7.1001625116829e-06
field sum 0.000128
field sqrsum 1.6384e-08
field min 0
field max 0.000128
attr interpolationmode  none
attr title  "queueing time, histogram"
bin	-INF	0
bin	-6.4e-05	0
bin	-5.5466666666667e-05	0
bin	-4.6933333333333e-05	0
bin	-3.84e-05	0
bin	-2.9866666666667e-05	0
bin	-2.1333333333333e-05	0
bin	-1.28e-05	0
bin	-4.2666666666667e-06	324
bin	4.2666666666667e-06	0
bin	1.28e-05	0
bin	2.1333333333333e-05	0
bin	2.9866666666667e-05	0
bin	3.84e-05	0
bin	4.6933333333333e-05	0
bin	5.5466666666667e-05	0
bin	6.4e-05	0
bin	7.2533333333333e-05	0
bin	8.1066666666667e-05	0
bin	8.96e-05	0
bin	9.8133333333333e-05	0
bin	0.00010666666666667	0
bin	0.0001152	0
bin	0.00012373333333333	1
bin	0.00013226666666667	0
bin	0.0001408	0
bin	0.00014933333333333	0
bin	0.00015786666666667	0
bin	0.0001664	0
bin	0.00017493333333333	0
bin	0.00018346666666667	0
bin	0.000192	0
scalar multi.router3.ppp[0].queue 	dropPk:count 	0
attr interpolationmode  none
attr source  dropPkByQueue
attr title  "dropped packets, count"
scalar multi.router3.ppp[0].queue 	dropPk:sum(packetBytes) 	0
attr interpolationmode  none
attr source  dropPkByQueue
attr title  "dropped packets, sum(packetBytes)"
scalar multi.router3.ppp[0].queue 	queueLength:max 	1
attr interpolationmode  sample-hold
attr title  "queue length, max"
scalar multi.router3.ppp[0].queue 	queueLength:timeavg 	1.0590958545303e-06
attr interpolationmode  sample-hold
attr title  "queue length, timeavg"
scalar multi.router3.ppp[0].queue 	rcvdPk:count 	325
attr interpolationmode  none
attr title  "received packets, count"
scalar multi.router3.ppp[0].queue 	rcvdPk:sum(packetBytes) 	16688
attr interpolationmode  none
attr title  "received packets, sum(packetBytes)"
scalar multi.router3.ppp[0].ppp 	txState:timeavg 	0.0050209086723645
attr interpolationmode  sample-hold
attr title  "tx state, timeavg"
scalar multi.router3.ppp[0].ppp 	droppedPkIfaceDown:count 	0
attr interpolationmode  none
attr source  dropPkIfaceDown
attr title  "packets dropped/interface down, count"
scalar multi.router3.ppp[0].ppp 	droppedPkIfaceDown:sum(packetBytes) 	0
attr interpolationmode  none
attr source  dropPkIfaceDown
attr title  "packets dropped/interface down, sum(packetBytes)"
scalar multi.router3.ppp[0].ppp 	droppedPkBitError:count 	1
attr interpolationmode  none
attr source  dropPkBitError
attr title  "packets dropped/bit error, count"
scalar multi.router3.ppp[0].ppp 	droppedPkBitError:sum(packetBytes) 	4287
attr interpolationmode  none
attr source  dropPkBitError
attr title  "packets dropped/bit error, sum(packetBytes)"
scalar multi.router3.ppp[0].ppp 	rxPkOk:count 	709
attr interpolationmode  none
attr source  rxPkOk
attr title  "packets received OK, count"
scalar multi.router3.ppp[0].ppp 	rxPkOk:sum(packetBytes) 	3005579
attr interpolationmode  none
attr source  rxPkOk
attr title  "packets received OK, sum(packetBytes)"
scalar multi.router3.ppp[0].ppp 	txPk:count 	325
attr interpolationmode  none
attr source  packetSentToLower
attr title  "packets transmitted, count"
scalar multi.router3.ppp[0].ppp 	txPk:sum(packetBytes) 	18963
attr interpolationmode  none
attr source  packetSentToLower
attr title  "packets transmitted, sum(packetBytes)"
scalar multi.router3.ppp[0].ppp 	rcvdPkFromHL:count 	325
attr interpolationmode  none
attr source  packetReceivedFromUpper
attr title  "packets received from higher layer, count"
scalar multi.router3.ppp[0].ppp 	rcvdPkFromHL:sum(packetBytes) 	16688
attr interpolationmode  none
attr source  packetReceivedFromUpper
attr title  "packets received from higher layer, sum(packetBytes)"
scalar multi.router3.ppp[0].ppp 	passedUpPk:count 	709
attr interpolationmode  none
attr source  packetSentToUpper
attr title  "packets passed to higher layer, count"
scalar multi.router3.ppp[0].ppp 	passedUpPk:sum(packetBytes) 	3000616
attr interpolationmode  none
attr source  packetSentToUpper
attr title  "packets passed to higher layer, sum(packetBytes)"
statistic multi.router3.ppp[1].queue 	queueingTime:histogram
field count 709
field mean 0.00070084062059238
field stddev 0.0094243526807177
field sum 0.496896
field sqrsum 0.063231688704
field min 0
field max 0.135424
attr interpolationmode  none
attr title  "queueing time, histogram"
bin	-INF	0
bin	-0.067712	0
bin	-0.058683733333333	0
bin	-0.049655466666667	0
bin	-0.0406272	0
bin	-0.031598933333333	0
bin	-0.022570666666667	0
bin	-0.0135424	0
bin	-0.0045141333333333	705
bin	0.0045141333333333	0
bin	0.0135424	0
bin	0.022570666666667	0
bin	0.031598933333333	0
bin	0.0406272	0
bin	0.049655466666667	0
bin	0.058683733333333	0
bin	0.067712	0
bin	0.076740266666667	0
bin	0.085768533333333	1
bin	0.0947968	0
bin	0.10382506666667	0
bin	0.11285333333333	0
bin	0.1218816	0
bin	0.13090986666667	3
bin	0.13993813333333	0
bin	0.1489664	0
bin	0.15799466666667	0
bin	0.16702293333333	0
bin	0.1760512	0
bin	0.18507946666667	0
bin	0.19410773333333	0
bin	0.203136	0
scalar multi.router3.ppp[1].queue 	dropPk:count 	0
attr interpolationmode  none
attr source  dropPkByQueue
attr title  "dropped packets, count"
scalar multi.router3.ppp[1].queue 	dropPk:sum(packetBytes) 	0
attr interpolationmode  none
attr source  dropPkByQueue
attr title  "dropped packets, sum(packetBytes)"
scalar multi.router3.ppp[1].queue 	queueLength:max 	1
attr interpolationmode  sample-hold
attr title  "queue length, max"
scalar multi.router3.ppp[1].queue 	queueLength:timeavg 	0.0041114101072866
attr interpolationmode  sample-hold
attr title  "queue length, timeavg"
scalar multi.router3.ppp[1].queue 	rcvdPk:count 	709
attr interpolationmode  none
attr title  "received packets, count"
scalar multi.router3.ppp[1].queue 	rcvdPk:sum(packetBytes) 	3000616
attr interpolationmode  none
attr title  "received packets, sum(packetBytes)"
scalar multi.router3.ppp[1].ppp 	txState:timeavg 	0.79579906484083
attr interpolationmode  sample-hold
attr title  "tx state, timeavg"
scalar multi.router3.ppp[1].ppp 	droppedPkIfaceDown:count 	0
attr interpolationmode  none
attr source  dropPkIfaceDown
attr title  "packets dropped/interface down, count"
scalar multi.router3.ppp[1].ppp 	droppedPkIfaceDown:sum(packetBytes) 	0
attr interpolationmode  none
attr source  dropPkIfaceDown
attr title  "packets dropped/interface down, sum(packetBytes)"
scalar multi.router3.ppp[1].ppp 	droppedPkBitError:count 	0
attr interpolationmode  none
attr source  dropPkBitError
attr title  "packets dropped/bit error, count"
scalar multi.router3.ppp[1].ppp 	droppedPkBitError:sum(packetBytes) 	0
attr interpolationmode  none
attr source  dropPkBitError
attr title  "packets dropped/bit error, sum(packetBytes)"
scalar multi.router3.ppp[1].ppp 	rxPkOk:count 	325
attr interpolationmode  none
attr source  rxPkOk
attr title  "packets received OK, count"
scalar multi.router3.ppp[1].ppp 	rxPkOk:sum(packetBytes) 	18963
attr interpolationmode  none
attr source  rxPkOk
attr title  "packets received OK, sum(packetBytes)"
scalar multi.router3.ppp[1].ppp 	txPk:count 	709
attr interpolationmode  none
attr source  packetSentToLower
attr title  "packets transmitted, count"
scalar multi.router3.ppp[1].ppp 	txPk:sum(packetBytes) 	3005579
attr interpolationmode  none
attr source  packetSentToLower
attr title  "packets transmitted, sum(packetBytes)"
scalar multi.router3.ppp[1].ppp 	rcvdPkFromHL:count 	709
attr interpolationmode  none
attr source  packetReceivedFromUpper
attr title  "packets received from higher layer, count"
scalar multi.router3.ppp[1].ppp 	rcvdPkFromHL:sum(packetBytes) 	3000616
attr interpolationmode  none
attr source  packetReceivedFromUpper
attr title  "packets received from higher layer, sum(packetBytes)"
scalar multi.router3.ppp[1].ppp 	passedUpPk:count 	325
attr interpolationmode  none
attr source  packetSentToUpper
attr title  "packets passed to higher layer, count"
scalar multi.router3.ppp[1].ppp 	passedUpPk:sum(packetBytes) 	16688
attr interpolationmode  none
attr source  packetSentToUpper
attr title  "packets passed to higher layer, sum(packetBytes)"
scalar multi.router4.networkLayer.arp 	failedARPResolution:count 	0
attr title  "ARP failed resolutions, count"
scalar multi.router4.networkLayer.arp 	completedARPResolution:count 	0
attr title  "ARP completed resolutions, count"
scalar multi.router4.networkLayer.arp 	initiatedARPResolution:count 	0
attr title  "ARP initiated resolutions, count"
scalar multi.router4.networkLayer.arp 	sentReply:count 	0
attr title  "ARP replies sent, count"
scalar multi.router4.networkLayer.arp 	sentReq:count 	0
attr title  "ARP request sent, count"
scalar multi.router4.lo0.lo 	droppedPkBitError:count 	0
attr interpolationmode  none
attr source  dropPkBitError
attr title  "packets dropped/bit error, count"
scalar multi.router4.lo0.lo 	droppedPkBitError:sum(packetBytes) 	0
attr interpolationmode  none
attr source  dropPkBitError
attr title  "packets dropped/bit error, sum(packetBytes)"
scalar multi.router4.lo0.lo 	rcvdPkFromHL:count 	0
attr interpolationmode  none
attr source  packetReceivedFromUpper
attr title  "packets received from higher layer, count"
scalar multi.router4.lo0.lo 	rcvdPkFromHL:sum(packetBytes) 	0
attr interpolationmode  none
attr source  packetReceivedFromUpper
attr title  "packets received from higher layer, sum(packetBytes)"
scalar multi.router4.lo0.lo 	passedUpPk:count 	0
attr interpolationmode  none
attr source  packetSentToUpper
attr title  "packets passed to higher layer, count"
scalar multi.router4.lo0.lo 	passedUpPk:sum(packetBytes) 	0
attr interpolationmode  none
attr source  packetSentToUpper
attr title  "packets passed to higher layer, sum(packetBytes)"
statistic multi.router4.ppp[0].queue 	queueingTime:histogram
field count 325
field mean 3.9384615384615e-07
field stddev 7.1001625116829e-06
field sum 0.000128
field sqrsum 1.6384e-08
field min 0
field max 0.000128
attr interpolationmode  none
attr title  "queueing time, histogram"
bin	-INF	0
bin	-6.4e-05	0
bin	-5.5466666666667e-05	0
bin	-4.6933333333333e-05	0
bin	-3.84e-05	0
bin	-2.9866666666667e-05	0
bin	-2.1333333333333e-05	0
bin	-1.28e-05	0
bin	-4.2666666666667e-06	324
bin	4.2666666666667e-06	0
bin	1.28e-05	0
bin	2.1333333333333e-05	0
bin	2.9866666666667e-05	0
bin	3.84e-05	0
bin	4.6933333333333e-05	0
bin	5.5466666666667e-05	0
bin	6.4e-05	0
bin	7.2533333333333e-05	0
bin	8.1066666666667e-05	0
bin	8.96e-05	0
bin	9.8133333333333e-05	0
bin	0.00010666666666667	0
bin	0.0001152	0
bin	0.00012373333333333	1
bin	0.00013226666666667	0
bin	0.0001408	0
bin	0.00014933333333333	0
bin	0.00015786666666667	0
bin	0.0001664	0
bin	0.00017493333333333	0
bin	0.00018346666666667	0
bin	0.000192	0
scalar multi.router4.ppp[0].queue 	dropPk:count 	0
attr interpolationmode  none
attr source  dropPkByQueue
attr title  "dropped packets, count"
scalar multi.router4.ppp[0].queue 	dropPk:sum(packetBytes) 	0
attr interpolationmode  none
attr source  dropPkByQueue
attr title  "dropped packets, sum(packetBytes)"
scalar multi.router4.ppp[0].queue 	queueLength:max 	1
attr interpolationmode  sample-hold
attr title  "queue length, max"
scalar multi.router4.ppp[0].queue 	queueLength:timeavg 	1.0590958545303e-06
attr interpolationmode  sample-hold
attr title  "queue length, timeavg"
scalar multi.router4.ppp[0].queue 	rcvdPk:count 	325
attr interpolationmode  none
attr title  "received packets, count"
scalar multi.router4.ppp[0].queue 	rcvdPk:sum(packetBytes) 	16688
attr interpolationmode  none
attr title  "received packets, sum(packetBytes)"
scalar multi.router4.ppp[0].ppp 	txState:timeavg 	0.0050209086723645
attr interpolationmode  sample-hold
attr title  "tx state, timeavg"
scalar multi.router4.ppp[0].ppp 	droppedPkIfaceDown:count 	0
attr interpolationmode  none
attr source  dropPkIfaceDown
attr title  "packets dropped/interface down, count"
scalar multi.router4.ppp[0].ppp 	droppedPkIfaceDown:sum(packetBytes) 	0
attr interpolationmode  none
attr source  dropPkIfaceDown
attr title  "packets dropped/interface down, sum(packetBytes)"
scalar multi.router4.ppp[0].ppp 	droppedPkBitError:count 	0
attr interpolationmode  none
attr source  dropPkBitError
attr title  "packets dropped/bit error, count"
scalar multi.router4.ppp[0].ppp 	droppedPkBitError:sum(packetBytes) 	0
attr interpolationmode  none
attr source  dropPkBitError
attr title  "packets dropped/bit error, sum(packetBytes)"
scalar multi.router4.ppp[0].ppp 	rxPkOk:count 	709
attr interpolationmode  none
attr source  rxPkOk
attr title  "packets received OK, count"
scalar multi.router4.ppp[0].ppp 	rxPkOk:sum(packetBytes) 	3005579
attr interpolationmode  none
attr source  rxPkOk
attr title  "packets received OK, sum(packetBytes)"
scalar multi.router4.ppp[0].ppp 	txPk:count 	325
attr interpolationmode  none
attr source  packetSentToLower
attr title  "packets transmitted, count"
scalar multi.router4.ppp[0].ppp 	txPk:sum(packetBytes) 	18963
attr interpolationmode  none
attr source  packetSentToLower
attr title  "packets transmitted, sum(packetBytes)"
scalar multi.router4.ppp[0].ppp 	rcvdPkFromHL:count 	325
attr interpolationmode  none
attr source  packetReceivedFromUpper
attr title  "packets received from higher layer, count"
scalar multi.router4.ppp[0].ppp 	rcvdPkFromHL:sum(packetBytes) 	16688
attr interpolationmode  none
attr source  packetReceivedFromUpper
attr title  "packets received from higher layer, sum(packetBytes)"
scalar multi.router4.ppp[0].ppp 	passedUpPk:count 	709
attr interpolationmode  none
attr source  packetSentToUpper
attr title  "packets passed to higher layer, count"
scalar multi.router4.ppp[0].ppp 	passedUpPk:sum(packetBytes) 	3000616
attr interpolationmode  none
attr source  packetSentToUpper
attr title  "packets passed to higher layer, sum(packetBytes)"
statistic multi.router4.ppp[1].queue 	queueingTime:histogram
field count 709
field mean 0.00070084062059238
field stddev 0.0094243526807177
field sum 0.496896
field sqrsum 0.063231688704
field min 0
field max 0.135424
attr interpolationmode  none
attr title  "queueing time, histogram"
bin	-INF	0
bin	-0.067712	0
bin	-0.058683733333333	0
bin	-0.049655466666667	0
bin	-0.0406272	0
bin	-0.031598933333333	0
bin	-0.022570666666667	0
bin	-0.0135424	0
bin	-0.0045141333333333	705
bin	0.0045141333333333	0
bin	0.0135424	0
bin	0.022570666666667	0
bin	0.031598933333333	0
bin	0.0406272	0
bin	0.049655466666667	0
bin	0.058683733333333	0
bin	0.067712	0
bin	0.076740266666667	0
bin	0.085768533333333	1
bin	0.0947968	0
bin	0.10382506666667	0
bin	0.11285333333333	0
bin	0.1218816	0
bin	0.13090986666667	3
bin	0.13993813333333	0
bin	0.1489664	0
bin	0.15799466666667	0
bin	0.16702293333333	0
bin	0.1760512	0
bin	0.18507946666667	0
bin	0.19410773333333	0
bin	0.203136	0
scalar multi.router4.ppp[1].queue 	dropPk:count 	0
attr interpolationmode  none
attr source  dropPkByQueue
attr title  "dropped packets, count"
scalar multi.router4.ppp[1].queue 	dropPk:sum(packetBytes) 	0
attr interpolationmode  none
attr source  dropPkByQueue
attr title  "dropped packets, sum(packetBytes)"
scalar multi.router4.ppp[1].queue 	queueLength:max 	1
attr interpolationmode  sample-hold
attr title  "queue length, max"
scalar multi.router4.ppp[1].queue 	queueLength:timeavg 	0.0041114101072866
attr interpolationmode  sample-hold
attr title  "queue length, timeavg"
scalar multi.router4.ppp[1].queue 	rcvdPk:count 	709
attr interpolationmode  none
attr title  "received packets, count"
scalar multi.router4.ppp[1].queue 	rcvdPk:sum(packetBytes) 	3000616
attr interpolationmode  none
attr title  "received packets, sum(packetBytes)"
scalar multi.router4.ppp[1].ppp 	txState:timeavg 	0.79579906484083
attr interpolationmode  sample-hold
attr title  "tx state, timeavg"
scalar multi.router4.ppp[1].ppp 	droppedPkIfaceDown:count 	0
attr interpolationmode  none
attr source  dropPkIfaceDown
attr title  "packets dropped/interface down, count"
scalar multi.router4.ppp[1].ppp 	droppedPkIfaceDown:sum(packetBytes) 	0
attr interpolationmode  none
attr source  dropPkIfaceDown
attr title  "packets dropped/interface down, sum(packetBytes)"
scalar multi.router4.ppp[1].ppp 	droppedPkBitError:count 	0
attr interpolationmode  none
attr source  dropPkBitError
attr title  "packets dropped/bit error, count"
scalar multi.router4.ppp[1].ppp 	droppedPkBitError:sum(packetBytes) 	0
attr interpolationmode  none
attr source  dropPkBitError
attr title  "packets dropped/bit error, sum(packetBytes)"
scalar multi.router4.ppp[1].ppp 	rxPkOk:count 	325
attr interpolationmode  none
attr source  rxPkOk
attr title  "packets received OK, count"
scalar multi.router4.ppp[1].ppp 	rxPkOk:sum(packetBytes) 	18963
attr interpolationmode  none
attr source  rxPkOk
attr title  "packets received OK, sum(packetBytes)"
scalar multi.router4.ppp[1].ppp 	txPk:count 	709
attr interpolationmode  none
attr source  packetSentToLower
attr title  "packets transmitted, count"
scalar multi.router4.ppp[1].ppp 	txPk:sum(packetBytes) 	3005579
attr interpolationmode  none
attr source  packetSentToLower
attr title  "packets transmitted, sum(packetBytes)"
scalar multi.router4.ppp[1].ppp 	rcvdPkFromHL:count 	709
attr interpolationmode  none
attr source  packetReceivedFromUpper
attr title  "packets received from higher layer, count"
scalar multi.router4.ppp[1].ppp 	rcvdPkFromHL:sum(packetBytes) 	3000616
attr interpolationmode  none
attr source  packetReceivedFromUpper
attr title  "packets received from higher layer, sum(packetBytes)"
scalar multi.router4.ppp[1].ppp 	passedUpPk:count 	325
attr interpolationmode  none
attr source  packetSentToUpper
attr title  "packets passed to higher layer, count"
scalar multi.router4.ppp[1].ppp 	passedUpPk:sum(packetBytes) 	16688
attr interpolationmode  none
attr source  packetSentToUpper
attr title  "packets passed to higher layer, sum(packetBytes)"
