version 2
run General-0-20180703-21:30:18-4373
attr configname General
attr datetime 20180703-21:30:18
attr experiment General
attr inifile omnetpp.ini
attr iterationvars ""
attr iterationvars2 $repetition=0
attr measurement ""
attr network multi
attr processid 4373
attr repetition 0
attr replication #0
attr resultdir results
attr runnumber 0
attr seedset 0
param **.cli*.numTcpApps 0
param **.cli*.sctpApp[*].typename "\"SCTPClient\""
param **.cli*.tcpApp[*].typename "\"TCPBasicClientApp\""
param **.cli1.numSctpApps 1
param **.cli1.sctpApp[0].connectAddress "\"10.1.3.1\""
param **.cli1.sctpApp[0].connectPort 6666
param **.cli1.sctpApp[0].localAddress "\"10.1.1.1 10.2.1.1\""
param **.cli1.sctpApp[0].numRequestsPerSession 100000000
param **.cli1.sctpApp[0].outboundStreams 1
param **.cli1.sctpApp[0].primaryPath "\"10.1.3.1\""
param **.cli1.sctpApp[0].queueSize 100
param **.cli1.sctpApp[0].requestLength 1400
param **.cli1.sctpApp[0].startTime 1s
param **.cli1.sctpApp[0].stopTime 120s
param **.numUdpApps 0
param **.ppp[*].queue.frameCapacity 20
param **.ppp[*].queueType "\"DropTailQueue\""
param **.srv1.numSctpApps 1
param **.srv1.numTcpApps 0
param **.srv1.sctpApp[*].typename "\"SCTPServer\""
param **.srv1.sctpApp[0].bytesToPush 0
param **.srv1.sctpApp[0].localAddress "\"10.1.3.1 10.2.3.1\""
param **.srv1.sctpApp[0].localPort 6666
param **.srv1.sctpApp[0].numPacketsToReceivePerClient 0
param **.srv1.sctpApp[0].numPacketsToSendPerClient 0
param **.srv1.sctpApp[0].outboundStreams 1
param **.srv1.sctpApp[0].queueSize 0
param **.srv1.sctpApp[0].readingInterval 0
param **.srv1.tcpApp[*].typename "\"TCPSinkApp\""
param **.udpApp[*].typename "\"UDPApp\""
param multi.testTimeout 0s
param multi.testing false

vector 11  multi.cli1.ppp[0].queue  queueLength:vector  ETV
attr interpolationmode  sample-hold
attr title  "queue length, vector"
vector 12  multi.cli1.ppp[0].ppp  txState:vector  ETV
attr interpolationmode  sample-hold
attr title  "tx state, vector"
vector 22  multi.cli1.ppp[1].queue  queueLength:vector  ETV
attr interpolationmode  sample-hold
attr title  "queue length, vector"
vector 23  multi.cli1.ppp[1].ppp  txState:vector  ETV
attr interpolationmode  sample-hold
attr title  "tx state, vector"
vector 38  multi.srv1.ppp[0].queue  queueLength:vector  ETV
attr interpolationmode  sample-hold
attr title  "queue length, vector"
vector 39  multi.srv1.ppp[0].ppp  txState:vector  ETV
attr interpolationmode  sample-hold
attr title  "tx state, vector"
vector 49  multi.srv1.ppp[1].queue  queueLength:vector  ETV
attr interpolationmode  sample-hold
attr title  "queue length, vector"
vector 50  multi.srv1.ppp[1].ppp  txState:vector  ETV
attr interpolationmode  sample-hold
attr title  "tx state, vector"
vector 65  multi.router1.ppp[0].queue  queueLength:vector  ETV
attr interpolationmode  sample-hold
attr title  "queue length, vector"
vector 66  multi.router1.ppp[0].ppp  txState:vector  ETV
attr interpolationmode  sample-hold
attr title  "tx state, vector"
vector 76  multi.router1.ppp[1].queue  queueLength:vector  ETV
attr interpolationmode  sample-hold
attr title  "queue length, vector"
vector 77  multi.router1.ppp[1].ppp  txState:vector  ETV
attr interpolationmode  sample-hold
attr title  "tx state, vector"
vector 92  multi.router2.ppp[0].queue  queueLength:vector  ETV
attr interpolationmode  sample-hold
attr title  "queue length, vector"
vector 93  multi.router2.ppp[0].ppp  txState:vector  ETV
attr interpolationmode  sample-hold
attr title  "tx state, vector"
vector 103  multi.router2.ppp[1].queue  queueLength:vector  ETV
attr interpolationmode  sample-hold
attr title  "queue length, vector"
vector 104  multi.router2.ppp[1].ppp  txState:vector  ETV
attr interpolationmode  sample-hold
attr title  "tx state, vector"
vector 119  multi.router3.ppp[0].queue  queueLength:vector  ETV
attr interpolationmode  sample-hold
attr title  "queue length, vector"
vector 120  multi.router3.ppp[0].ppp  txState:vector  ETV
attr interpolationmode  sample-hold
attr title  "tx state, vector"
vector 130  multi.router3.ppp[1].queue  queueLength:vector  ETV
attr interpolationmode  sample-hold
attr title  "queue length, vector"
vector 131  multi.router3.ppp[1].ppp  txState:vector  ETV
attr interpolationmode  sample-hold
attr title  "tx state, vector"
vector 146  multi.router4.ppp[0].queue  queueLength:vector  ETV
attr interpolationmode  sample-hold
attr title  "queue length, vector"
vector 147  multi.router4.ppp[0].ppp  txState:vector  ETV
attr interpolationmode  sample-hold
attr title  "tx state, vector"
vector 157  multi.router4.ppp[1].queue  queueLength:vector  ETV
attr interpolationmode  sample-hold
attr title  "queue length, vector"
vector 158  multi.router4.ppp[1].ppp  txState:vector  ETV
attr interpolationmode  sample-hold
attr title  "tx state, vector"
vector 186  multi.srv1.sctp  "Throughput of Association 2"  ETV
vector 208  multi.cli1.sctp  "Throughput of Association 1"  ETV
vector 228  multi.cli1.sctp  "Fast Recovery State 1:10.1.3.1"  ETV
vector 8  multi.cli1.ppp[0].queue  rcvdPk:vector(packetBytes)  ETV
attr interpolationmode  none
attr title  "received packets, vector(packetBytes)"
vector 10  multi.cli1.ppp[0].queue  queueingTime:vector  ETV
attr interpolationmode  none
attr title  "queueing time, vector"
vector 17  multi.cli1.ppp[0].ppp  rcvdPkFromHL:vector(packetBytes)  ETV
attr interpolationmode  none
attr source  packetReceivedFromUpper
attr title  "packets received from higher layer, vector(packetBytes)"
vector 13  multi.cli1.ppp[0].ppp  txPk:vector(packetBytes)  ETV
attr interpolationmode  none
attr source  packetSentToLower
attr title  "packets transmitted, vector(packetBytes)"
vector 68  multi.router1.ppp[0].ppp  rxPkOk:vector(packetBytes)  ETV
attr interpolationmode  none
attr source  rxPkOk
attr title  "packets received OK, vector(packetBytes)"
vector 72  multi.router1.ppp[0].ppp  passedUpPk:vector(packetBytes)  ETV
attr interpolationmode  none
attr source  packetSentToUpper
attr title  "packets passed to higher layer, vector(packetBytes)"
vector 73  multi.router1.ppp[1].queue  rcvdPk:vector(packetBytes)  ETV
attr interpolationmode  none
attr title  "received packets, vector(packetBytes)"
vector 75  multi.router1.ppp[1].queue  queueingTime:vector  ETV
attr interpolationmode  none
attr title  "queueing time, vector"
vector 82  multi.router1.ppp[1].ppp  rcvdPkFromHL:vector(packetBytes)  ETV
attr interpolationmode  none
attr source  packetReceivedFromUpper
attr title  "packets received from higher layer, vector(packetBytes)"
vector 78  multi.router1.ppp[1].ppp  txPk:vector(packetBytes)  ETV
attr interpolationmode  none
attr source  packetSentToLower
attr title  "packets transmitted, vector(packetBytes)"
vector 95  multi.router2.ppp[0].ppp  rxPkOk:vector(packetBytes)  ETV
attr interpolationmode  none
attr source  rxPkOk
attr title  "packets received OK, vector(packetBytes)"
vector 99  multi.router2.ppp[0].ppp  passedUpPk:vector(packetBytes)  ETV
attr interpolationmode  none
attr source  packetSentToUpper
attr title  "packets passed to higher layer, vector(packetBytes)"
vector 100  multi.router2.ppp[1].queue  rcvdPk:vector(packetBytes)  ETV
attr interpolationmode  none
attr title  "received packets, vector(packetBytes)"
vector 102  multi.router2.ppp[1].queue  queueingTime:vector  ETV
attr interpolationmode  none
attr title  "queueing time, vector"
vector 109  multi.router2.ppp[1].ppp  rcvdPkFromHL:vector(packetBytes)  ETV
attr interpolationmode  none
attr source  packetReceivedFromUpper
attr title  "packets received from higher layer, vector(packetBytes)"
vector 105  multi.router2.ppp[1].ppp  txPk:vector(packetBytes)  ETV
attr interpolationmode  none
attr source  packetSentToLower
attr title  "packets transmitted, vector(packetBytes)"
vector 41  multi.srv1.ppp[0].ppp  rxPkOk:vector(packetBytes)  ETV
attr interpolationmode  none
attr source  rxPkOk
attr title  "packets received OK, vector(packetBytes)"
vector 45  multi.srv1.ppp[0].ppp  passedUpPk:vector(packetBytes)  ETV
attr interpolationmode  none
attr source  packetSentToUpper
attr title  "packets passed to higher layer, vector(packetBytes)"
vector 257  multi.srv1.sctp  "Throughput of Association 2"  ETV
vector 183  multi.srv1.sctp  "Peer Rwnd 2"  ETV
vector 277  multi.srv1.sctp  "Fast Recovery State 3:10.1.1.1"  ETV
vector 304  multi.srv1.sctp  "Fast Recovery State 3:10.2.1.1"  ETV
vector 35  multi.srv1.ppp[0].queue  rcvdPk:vector(packetBytes)  ETV
attr interpolationmode  none
attr title  "received packets, vector(packetBytes)"
vector 37  multi.srv1.ppp[0].queue  queueingTime:vector  ETV
attr interpolationmode  none
attr title  "queueing time, vector"
vector 44  multi.srv1.ppp[0].ppp  rcvdPkFromHL:vector(packetBytes)  ETV
attr interpolationmode  none
attr source  packetReceivedFromUpper
attr title  "packets received from higher layer, vector(packetBytes)"
vector 40  multi.srv1.ppp[0].ppp  txPk:vector(packetBytes)  ETV
attr interpolationmode  none
attr source  packetSentToLower
attr title  "packets transmitted, vector(packetBytes)"
vector 106  multi.router2.ppp[1].ppp  rxPkOk:vector(packetBytes)  ETV
attr interpolationmode  none
attr source  rxPkOk
attr title  "packets received OK, vector(packetBytes)"
vector 110  multi.router2.ppp[1].ppp  passedUpPk:vector(packetBytes)  ETV
attr interpolationmode  none
attr source  packetSentToUpper
attr title  "packets passed to higher layer, vector(packetBytes)"
vector 89  multi.router2.ppp[0].queue  rcvdPk:vector(packetBytes)  ETV
attr interpolationmode  none
attr title  "received packets, vector(packetBytes)"
vector 91  multi.router2.ppp[0].queue  queueingTime:vector  ETV
attr interpolationmode  none
attr title  "queueing time, vector"
vector 98  multi.router2.ppp[0].ppp  rcvdPkFromHL:vector(packetBytes)  ETV
attr interpolationmode  none
attr source  packetReceivedFromUpper
attr title  "packets received from higher layer, vector(packetBytes)"
vector 94  multi.router2.ppp[0].ppp  txPk:vector(packetBytes)  ETV
attr interpolationmode  none
attr source  packetSentToLower
attr title  "packets transmitted, vector(packetBytes)"
vector 79  multi.router1.ppp[1].ppp  rxPkOk:vector(packetBytes)  ETV
attr interpolationmode  none
attr source  rxPkOk
attr title  "packets received OK, vector(packetBytes)"
vector 83  multi.router1.ppp[1].ppp  passedUpPk:vector(packetBytes)  ETV
attr interpolationmode  none
attr source  packetSentToUpper
attr title  "packets passed to higher layer, vector(packetBytes)"
vector 62  multi.router1.ppp[0].queue  rcvdPk:vector(packetBytes)  ETV
attr interpolationmode  none
attr title  "received packets, vector(packetBytes)"
vector 64  multi.router1.ppp[0].queue  queueingTime:vector  ETV
attr interpolationmode  none
attr title  "queueing time, vector"
vector 71  multi.router1.ppp[0].ppp  rcvdPkFromHL:vector(packetBytes)  ETV
attr interpolationmode  none
attr source  packetReceivedFromUpper
attr title  "packets received from higher layer, vector(packetBytes)"
vector 67  multi.router1.ppp[0].ppp  txPk:vector(packetBytes)  ETV
attr interpolationmode  none
attr source  packetSentToLower
attr title  "packets transmitted, vector(packetBytes)"
vector 14  multi.cli1.ppp[0].ppp  rxPkOk:vector(packetBytes)  ETV
attr interpolationmode  none
attr source  rxPkOk
attr title  "packets received OK, vector(packetBytes)"
vector 18  multi.cli1.ppp[0].ppp  passedUpPk:vector(packetBytes)  ETV
attr interpolationmode  none
attr source  packetSentToUpper
attr title  "packets passed to higher layer, vector(packetBytes)"
vector 205  multi.cli1.sctp  "Peer Rwnd 1"  ETV
vector 331  multi.cli1.sctp  "Fast Recovery State 1:10.2.3.1"  ETV
vector 69  multi.router1.ppp[0].ppp  droppedPkBitError:vector(packetBytes)  ETV
attr interpolationmode  none
attr source  dropPkBitError
attr title  "packets dropped/bit error, vector(packetBytes)"
vector 260  multi.srv1.sctp  "Slow Start Threshold 3:10.1.1.1"  ETV
vector 261  multi.srv1.sctp  "Congestion Window 3:10.1.1.1"  ETV
vector 262  multi.srv1.sctp  "Bandwidth 3:10.1.1.1"  ETV
vector 258  multi.srv1.sctp  "RTO 3:10.1.1.1"  ETV
vector 287  multi.srv1.sctp  "Slow Start Threshold 3:10.2.1.1"  ETV
vector 288  multi.srv1.sctp  "Congestion Window 3:10.2.1.1"  ETV
vector 289  multi.srv1.sctp  "Bandwidth 3:10.2.1.1"  ETV
vector 292  multi.srv1.sctp  "HB Sent 3:10.2.1.1"  ETV
vector 285  multi.srv1.sctp  "RTO 3:10.2.1.1"  ETV
vector 46  multi.srv1.ppp[1].queue  rcvdPk:vector(packetBytes)  ETV
attr interpolationmode  none
attr title  "received packets, vector(packetBytes)"
vector 48  multi.srv1.ppp[1].queue  queueingTime:vector  ETV
attr interpolationmode  none
attr title  "queueing time, vector"
vector 55  multi.srv1.ppp[1].ppp  rcvdPkFromHL:vector(packetBytes)  ETV
attr interpolationmode  none
attr source  packetReceivedFromUpper
attr title  "packets received from higher layer, vector(packetBytes)"
vector 51  multi.srv1.ppp[1].ppp  txPk:vector(packetBytes)  ETV
attr interpolationmode  none
attr source  packetSentToLower
attr title  "packets transmitted, vector(packetBytes)"
vector 160  multi.router4.ppp[1].ppp  rxPkOk:vector(packetBytes)  ETV
attr interpolationmode  none
attr source  rxPkOk
attr title  "packets received OK, vector(packetBytes)"
vector 164  multi.router4.ppp[1].ppp  passedUpPk:vector(packetBytes)  ETV
attr interpolationmode  none
attr source  packetSentToUpper
attr title  "packets passed to higher layer, vector(packetBytes)"
vector 143  multi.router4.ppp[0].queue  rcvdPk:vector(packetBytes)  ETV
attr interpolationmode  none
attr title  "received packets, vector(packetBytes)"
vector 145  multi.router4.ppp[0].queue  queueingTime:vector  ETV
attr interpolationmode  none
attr title  "queueing time, vector"
vector 152  multi.router4.ppp[0].ppp  rcvdPkFromHL:vector(packetBytes)  ETV
attr interpolationmode  none
attr source  packetReceivedFromUpper
attr title  "packets received from higher layer, vector(packetBytes)"
vector 148  multi.router4.ppp[0].ppp  txPk:vector(packetBytes)  ETV
attr interpolationmode  none
attr source  packetSentToLower
attr title  "packets transmitted, vector(packetBytes)"
vector 133  multi.router3.ppp[1].ppp  rxPkOk:vector(packetBytes)  ETV
attr interpolationmode  none
attr source  rxPkOk
attr title  "packets received OK, vector(packetBytes)"
vector 137  multi.router3.ppp[1].ppp  passedUpPk:vector(packetBytes)  ETV
attr interpolationmode  none
attr source  packetSentToUpper
attr title  "packets passed to higher layer, vector(packetBytes)"
vector 116  multi.router3.ppp[0].queue  rcvdPk:vector(packetBytes)  ETV
attr interpolationmode  none
attr title  "received packets, vector(packetBytes)"
vector 118  multi.router3.ppp[0].queue  queueingTime:vector  ETV
attr interpolationmode  none
attr title  "queueing time, vector"
vector 125  multi.router3.ppp[0].ppp  rcvdPkFromHL:vector(packetBytes)  ETV
attr interpolationmode  none
attr source  packetReceivedFromUpper
attr title  "packets received from higher layer, vector(packetBytes)"
vector 121  multi.router3.ppp[0].ppp  txPk:vector(packetBytes)  ETV
attr interpolationmode  none
attr source  packetSentToLower
attr title  "packets transmitted, vector(packetBytes)"
vector 25  multi.cli1.ppp[1].ppp  rxPkOk:vector(packetBytes)  ETV
attr interpolationmode  none
attr source  rxPkOk
attr title  "packets received OK, vector(packetBytes)"
vector 29  multi.cli1.ppp[1].ppp  passedUpPk:vector(packetBytes)  ETV
attr interpolationmode  none
attr source  packetSentToUpper
attr title  "packets passed to higher layer, vector(packetBytes)"
vector 320  multi.cli1.sctp  "HB ACK Sent 1:10.2.3.1"  ETV
vector 321  multi.cli1.sctp  "HB Received 1:10.2.3.1"  ETV
vector 19  multi.cli1.ppp[1].queue  rcvdPk:vector(packetBytes)  ETV
attr interpolationmode  none
attr title  "received packets, vector(packetBytes)"
vector 21  multi.cli1.ppp[1].queue  queueingTime:vector  ETV
attr interpolationmode  none
attr title  "queueing time, vector"
vector 28  multi.cli1.ppp[1].ppp  rcvdPkFromHL:vector(packetBytes)  ETV
attr interpolationmode  none
attr source  packetReceivedFromUpper
attr title  "packets received from higher layer, vector(packetBytes)"
vector 24  multi.cli1.ppp[1].ppp  txPk:vector(packetBytes)  ETV
attr interpolationmode  none
attr source  packetSentToLower
attr title  "packets transmitted, vector(packetBytes)"
vector 211  multi.cli1.sctp  "Slow Start Threshold 1:10.1.3.1"  ETV
vector 212  multi.cli1.sctp  "Congestion Window 1:10.1.3.1"  ETV
vector 213  multi.cli1.sctp  "Bandwidth 1:10.1.3.1"  ETV
vector 209  multi.cli1.sctp  "RTO 1:10.1.3.1"  ETV
vector 314  multi.cli1.sctp  "Slow Start Threshold 1:10.2.3.1"  ETV
vector 315  multi.cli1.sctp  "Congestion Window 1:10.2.3.1"  ETV
vector 316  multi.cli1.sctp  "Bandwidth 1:10.2.3.1"  ETV
vector 319  multi.cli1.sctp  "HB Sent 1:10.2.3.1"  ETV
vector 312  multi.cli1.sctp  "RTO 1:10.2.3.1"  ETV
vector 1  multi.cli1.sctpApp[0]  sentPk:vector(packetBytes)  ETV
attr interpolationmode  none
attr source  sentPk
attr title  "packets sent, vector(packetBytes)"
vector 348  multi.cli1.sctp  "SendQueue of Association 1"  ETV
vector 214  multi.cli1.sctp  "TSN Sent 1:10.1.3.1"  ETV
vector 221  multi.cli1.sctp  "Outstanding Bytes 1:10.1.3.1"  ETV
vector 193  multi.cli1.sctp  "Outstanding Bytes 1:Total"  ETV
vector 220  multi.cli1.sctp  "Queued Sent Bytes 1:10.1.3.1"  ETV
vector 192  multi.cli1.sctp  "Queued Sent Bytes 1:Total"  ETV
vector 122  multi.router3.ppp[0].ppp  rxPkOk:vector(packetBytes)  ETV
attr interpolationmode  none
attr source  rxPkOk
attr title  "packets received OK, vector(packetBytes)"
vector 126  multi.router3.ppp[0].ppp  passedUpPk:vector(packetBytes)  ETV
attr interpolationmode  none
attr source  packetSentToUpper
attr title  "packets passed to higher layer, vector(packetBytes)"
vector 127  multi.router3.ppp[1].queue  rcvdPk:vector(packetBytes)  ETV
attr interpolationmode  none
attr title  "received packets, vector(packetBytes)"
vector 129  multi.router3.ppp[1].queue  queueingTime:vector  ETV
attr interpolationmode  none
attr title  "queueing time, vector"
vector 136  multi.router3.ppp[1].ppp  rcvdPkFromHL:vector(packetBytes)  ETV
attr interpolationmode  none
attr source  packetReceivedFromUpper
attr title  "packets received from higher layer, vector(packetBytes)"
vector 132  multi.router3.ppp[1].ppp  txPk:vector(packetBytes)  ETV
attr interpolationmode  none
attr source  packetSentToLower
attr title  "packets transmitted, vector(packetBytes)"
vector 150  multi.router4.ppp[0].ppp  droppedPkBitError:vector(packetBytes)  ETV
attr interpolationmode  none
attr source  dropPkBitError
attr title  "packets dropped/bit error, vector(packetBytes)"
vector 149  multi.router4.ppp[0].ppp  rxPkOk:vector(packetBytes)  ETV
attr interpolationmode  none
attr source  rxPkOk
attr title  "packets received OK, vector(packetBytes)"
vector 153  multi.router4.ppp[0].ppp  passedUpPk:vector(packetBytes)  ETV
attr interpolationmode  none
attr source  packetSentToUpper
attr title  "packets passed to higher layer, vector(packetBytes)"
vector 154  multi.router4.ppp[1].queue  rcvdPk:vector(packetBytes)  ETV
attr interpolationmode  none
attr title  "received packets, vector(packetBytes)"
vector 156  multi.router4.ppp[1].queue  queueingTime:vector  ETV
attr interpolationmode  none
attr title  "queueing time, vector"
vector 163  multi.router4.ppp[1].ppp  rcvdPkFromHL:vector(packetBytes)  ETV
attr interpolationmode  none
attr source  packetReceivedFromUpper
attr title  "packets received from higher layer, vector(packetBytes)"
vector 159  multi.router4.ppp[1].ppp  txPk:vector(packetBytes)  ETV
attr interpolationmode  none
attr source  packetSentToLower
attr title  "packets transmitted, vector(packetBytes)"
vector 53  multi.srv1.ppp[1].ppp  droppedPkBitError:vector(packetBytes)  ETV
attr interpolationmode  none
attr source  dropPkBitError
attr title  "packets dropped/bit error, vector(packetBytes)"
vector 96  multi.router2.ppp[0].ppp  droppedPkBitError:vector(packetBytes)  ETV
attr interpolationmode  none
attr source  dropPkBitError
attr title  "packets dropped/bit error, vector(packetBytes)"
vector 264  multi.srv1.sctp  "TSN Received 3:10.1.1.1"  ETV
vector 339  multi.srv1.sctp  "Stream 0 Throughput"  ETV
vector 169  multi.srv1.sctp  "Queued Received Bytes 2:Total"  ETV
vector 165  multi.srv1.sctp  "Advertised Receiver Window 2"  ETV
vector 174  multi.srv1.sctp  "Number of Total Gap Blocks Stored 2"  ETV
vector 175  multi.srv1.sctp  "Number of Revokable Gap Blocks Stored 2"  ETV
vector 176  multi.srv1.sctp  "Number of Non-Revokable Gap Blocks Stored 2"  ETV
vector 177  multi.srv1.sctp  "Number of Duplicate TSNs Stored 2"  ETV
vector 181  multi.srv1.sctp  "Length of SACK Sent 2"  ETV
vector 178  multi.srv1.sctp  "Number of Revokable Gap Blocks Sent 2"  ETV
vector 179  multi.srv1.sctp  "Number of Non-Revokable Gap Blocks Sent 2"  ETV
vector 180  multi.srv1.sctp  "Number of Duplicate TSNs Sent 2"  ETV
vector 347  multi.cli1.sctp  "Number of Gap Blocks in Last SACK of Association 1"  ETV
vector 194  multi.cli1.sctp  "Number of Revokable Gap Blocks in SACK 1"  ETV
vector 195  multi.cli1.sctp  "Number of Non-Revokable Gap Blocks in SACK 1"  ETV
vector 231  multi.cli1.sctp  "TSN Acked CumAck 1:10.1.3.1"  ETV
vector 232  multi.cli1.sctp  "TSN Acked GapAck 1:10.1.3.1"  ETV
vector 210  multi.cli1.sctp  "RTT 1:10.1.3.1"  ETV
vector 224  multi.cli1.sctp  "Number of Gap Acked Chunks in Last SACK 1:10.1.3.1"  ETV
vector 225  multi.cli1.sctp  "Number of Non-Revokable Gap Acked Chunks in Last SACK 1:10.1.3.1"  ETV
vector 226  multi.cli1.sctp  "Number of Gap Missed Chunks in Last SACK 1:10.1.3.1"  ETV
vector 327  multi.cli1.sctp  "Number of Gap Acked Chunks in Last SACK 1:10.2.3.1"  ETV
vector 328  multi.cli1.sctp  "Number of Non-Revokable Gap Acked Chunks in Last SACK 1:10.2.3.1"  ETV
vector 329  multi.cli1.sctp  "Number of Gap Missed Chunks in Last SACK 1:10.2.3.1"  ETV
vector 204  multi.cli1.sctp  "Arwnd in Last SACK 1"  ETV
vector 227  multi.cli1.sctp  "Partial Bytes Acked 1:10.1.3.1"  ETV
vector 229  multi.cli1.sctp  "TSN Sent Fast RTX 1:10.1.3.1"  ETV
vector 185  multi.srv1.sctp  "End to End Delay of Association 2"  ETV
vector 343  multi.srv1.sctpApp[0]  "App: Received Bytes of assoc 3"  ETV
vector 15  multi.cli1.ppp[0].ppp  droppedPkBitError:vector(packetBytes)  ETV
attr interpolationmode  none
attr source  dropPkBitError
attr title  "packets dropped/bit error, vector(packetBytes)"
vector 233  multi.cli1.sctp  "TSN PseudoCumAck 1:10.1.3.1"  ETV
vector 234  multi.cli1.sctp  "TSN RTXPseudoCumAck 1:10.1.3.1"  ETV
vector 107  multi.router2.ppp[1].ppp  droppedPkBitError:vector(packetBytes)  ETV
attr interpolationmode  none
attr source  dropPkBitError
attr title  "packets dropped/bit error, vector(packetBytes)"
vector 80  multi.router1.ppp[1].ppp  droppedPkBitError:vector(packetBytes)  ETV
attr interpolationmode  none
attr source  dropPkBitError
attr title  "packets dropped/bit error, vector(packetBytes)"
vector 42  multi.srv1.ppp[0].ppp  droppedPkBitError:vector(packetBytes)  ETV
attr interpolationmode  none
attr source  dropPkBitError
attr title  "packets dropped/bit error, vector(packetBytes)"
vector 230  multi.cli1.sctp  "TSN Sent Timer-Based RTX 1:10.1.3.1"  ETV
vector 265  multi.srv1.sctp  "HB Sent 3:10.1.1.1"  ETV
vector 26  multi.cli1.ppp[1].ppp  droppedPkBitError:vector(packetBytes)  ETV
attr interpolationmode  none
attr source  dropPkBitError
attr title  "packets dropped/bit error, vector(packetBytes)"
vector 217  multi.cli1.sctp  "HB ACK Sent 1:10.1.3.1"  ETV
vector 218  multi.cli1.sctp  "HB Received 1:10.1.3.1"  ETV
vector 52  multi.srv1.ppp[1].ppp  rxPkOk:vector(packetBytes)  ETV
attr interpolationmode  none
attr source  rxPkOk
attr title  "packets received OK, vector(packetBytes)"
vector 56  multi.srv1.ppp[1].ppp  passedUpPk:vector(packetBytes)  ETV
attr interpolationmode  none
attr source  packetSentToUpper
attr title  "packets passed to higher layer, vector(packetBytes)"
vector 293  multi.srv1.sctp  "HB ACK Sent 3:10.2.1.1"  ETV
vector 294  multi.srv1.sctp  "HB Received 3:10.2.1.1"  ETV
vector 268  multi.srv1.sctp  "HB ACK Received 3:10.1.1.1"  ETV
vector 259  multi.srv1.sctp  "RTT 3:10.1.1.1"  ETV
vector 322  multi.cli1.sctp  "HB ACK Received 1:10.2.3.1"  ETV
vector 313  multi.cli1.sctp  "RTT 1:10.2.3.1"  ETV
vector 323  multi.cli1.sctp  "Queued Sent Bytes 1:10.2.3.1"  ETV
vector 324  multi.cli1.sctp  "Outstanding Bytes 1:10.2.3.1"  ETV
vector 333  multi.cli1.sctp  "TSN Sent Timer-Based RTX 1:10.2.3.1"  ETV
vector 291  multi.srv1.sctp  "TSN Received 3:10.2.1.1"  ETV
vector 334  multi.cli1.sctp  "TSN Acked CumAck 1:10.2.3.1"  ETV
vector 335  multi.cli1.sctp  "TSN Acked GapAck 1:10.2.3.1"  ETV
vector 336  multi.cli1.sctp  "TSN PseudoCumAck 1:10.2.3.1"  ETV
vector 337  multi.cli1.sctp  "TSN RTXPseudoCumAck 1:10.2.3.1"  ETV
vector 330  multi.cli1.sctp  "Partial Bytes Acked 1:10.2.3.1"  ETV
vector 295  multi.srv1.sctp  "HB ACK Received 3:10.2.1.1"  ETV
vector 286  multi.srv1.sctp  "RTT 3:10.2.1.1"  ETV
vector 123  multi.router3.ppp[0].ppp  droppedPkBitError:vector(packetBytes)  ETV
attr interpolationmode  none
attr source  dropPkBitError
attr title  "packets dropped/bit error, vector(packetBytes)"
vector 134  multi.router3.ppp[1].ppp  droppedPkBitError:vector(packetBytes)  ETV
attr interpolationmode  none
attr source  dropPkBitError
attr title  "packets dropped/bit error, vector(packetBytes)"
vector 161  multi.router4.ppp[1].ppp  droppedPkBitError:vector(packetBytes)  ETV
attr interpolationmode  none
attr source  dropPkBitError
attr title  "packets dropped/bit error, vector(packetBytes)"
211	116	4.052736	65535
211	478	5.211872	17880
211	630	6.053216	17880
211	958	8.32304	17880
211	1173	12.139085954102	17880
211	1218	12.833069954102	17880
211	1296	13.663725954102	17880
211	1378	16.628521862306	17880
211	1444	17.184809862306	17880
211	1538	17.940585862306	17880
211	1673	19.045609862306	17880
211	1933	20.068201862306	17880
211	2188	21.714409862306	17880
211	2345	22.612905862306	17880
211	2489	26.668146646083	17880
211	2558	33.877690389439	17880
211	2601	34.435002389439	17880
211	2804	48.854089876151	17880
211	2994	49.745289876151	17880
211	3166	78.583464849575	17880
211	3277	79.137480849575	17880
211	3331	79.413000849575	17880
211	3388	79.893256849575	17880
211	3464	80.441992849575	17880
211	3925	82.911304849575	17880
211	4116	84.573640849575	17880
211	4376	86.418312849575	17880
211	4652	88.413768849575	17880
211	4752	89.382632849575	17880
211	4968	92.029518774343	17880
211	5303	93.696142774343	17880
211	5398	94.808718774343	17880
211	5578	95.913742774343	17880
211	5790	99.115317221248	17880
211	5873	99.817366096192	17880
211	6000	104.563061221248	17880
211	6077	109.594371864946	17880
211	6078	109.594371864946	17880
211	6199	113.427824532168	17880
212	116	4.052736	8940
212	478	5.211872	17880
212	630	6.053216	22350
212	958	8.32304	17880
212	1173	12.139085954102	4470
212	1218	12.833069954102	8940
212	1296	13.663725954102	13410
212	1378	16.628521862306	4470
212	1444	17.184809862306	8940
212	1538	17.940585862306	13410
212	1673	19.045609862306	17880
212	1933	20.068201862306	22080
212	2188	21.714409862306	26550
212	2345	22.612905862306	17880
212	2489	26.668146646083	4470
212	2558	33.877690389439	4470
212	2601	34.435002389439	8670
212	2804	48.854089876151	4470
212	2994	49.745289876151	8670
212	3166	78.583464849575	4470
212	3277	79.137480849575	8670
212	3331	79.413000849575	12870
212	3388	79.893256849575	17070
212	3464	80.441992849575	21540
212	3925	82.911304849575	26010
212	4116	84.573640849575	17880
212	4376	86.418312849575	22350
212	4652	88.413768849575	26820
212	4752	89.382632849575	17880
212	4968	92.029518774343	4470
212	5303	93.696142774343	8940
212	5398	94.808718774343	11740
212	5578	95.913742774343	17880
212	5790	99.115317221248	4470
212	5873	99.817366096192	8940
212	6000	104.563061221248	13410
212	6077	109.594371864946	4470
212	6078	109.594371864946	8940
212	6199	113.427824532168	8940
213	116	4.052736	0.3725
213	478	5.211872	3.7080049771879
213	630	6.053216	4.679648241206
213	958	8.32304	2.8903976721629
213	1173	12.139085954102	0.68663594470046
213	1218	12.833069954102	1.0353213665316
213	1296	13.663725954102	1.5529820497973
213	1378	16.628521862306	0.51766068326578
213	1444	17.184809862306	0.80707772862688
213	1538	17.940585862306	1.2106165929403
213	1673	19.045609862306	1.6991352275967
213	1933	20.068201862306	2.0982609521999
213	2188	21.714409862306	2.4499400203008
213	2345	22.612905862306	1.6499031097167
213	2489	26.668146646083	0.4224553444854
213	2558	33.877690389439	0.4224553444854
213	2601	34.435002389439	0.81939325205557
213	2804	48.854089876151	0.4224553444854
213	2994	49.745289876151	0.81939325205557
213	3166	78.583464849575	0.4224553444854
213	3277	79.137480849575	0.81939325205557
213	3331	79.413000849575	1.2163311596257
213	3388	79.893256849575	1.7046135410425
213	3464	80.441992849575	2.1509886159377
213	3925	82.911304849575	2.4740797108342
213	4116	84.573640849575	1.7824743295783
213	4376	86.418312849575	2.2280929119729
213	4652	88.413768849575	2.6227263837278
213	4752	89.382632849575	1.7484842558185
213	4968	92.029518774343	0.47032828282828
213	5303	93.696142774343	0.97736962938668
213	5398	94.808718774343	1.2834809227069
213	5578	95.913742774343	2.0058335203051
213	5790	99.115317221248	0.52067559697146
213	5873	99.817366096192	1.0413511939429
213	6000	104.563061221248	1.5620267909144
213	6077	109.594371864946	0.52067559697146
213	6078	109.594371864946	1.0413511939429
213	6199	113.427824532168	1.0542452830189
209	116	4.052736	3
209	398	4.655584	1.808544
209	536	5.48624	1.54786
209	684	6.327584	1.8936715
209	805	7.150688	2.0757790625
209	918	8.048672	2.248955054688
209	1038	8.871776	2.244717954102
209	1173	12.139085954102	4.489435908204
209	1218	12.833069954102	4.277469619143
209	1378	16.628521862306	8.554939238286
209	1444	17.184809862306	6.224806108156
209	1633	18.771241862306	5.499512946504
209	1984	20.342569862306	4.469621529594
209	2188	21.714409862306	4.055240783777
209	2423	23.161641862306	3.604771871678
209	2489	26.668146646083	7.209543743356
209	2558	33.877690389439	14.419087486712
209	2804	48.854089876151	28.838174973424
209	3166	78.583464849575	57.676349946848
209	3388	79.893256849575	3.53024652712
209	3712	81.265096849575	3.095694540553
209	3925	82.911304849575	3.065313344972
209	4116	84.573640849575	3.049759764225
209	4430	86.692680849575	2.956749003456
209	4652	88.413768849575	2.646885924768
209	4874	90.907784849575	2.93606709423
209	4968	92.029518774343	5.87213418846
209	5303	93.696142774343	2.811866139994
209	5525	95.357454774343	2.598726446905
209	5756	97.301710774343	2.515655321849
209	5790	99.115317221248	5.031310643698
209	6077	109.594371864946	10.062621287396
209	6188	111.181091864946	2.246732667222
210	398	4.655584	0.602848
210	536	5.48624	0.556288
210	684	6.327584	1.115712
210	805	7.150688	1.097472
210	918	8.048672	1.172352
210	1038	8.871776	1.097472
210	1218	12.833069954102	2.938701954102
210	1444	17.184809862306	3.521083908204
210	1633	18.771241862306	0.830656
210	1984	20.342569862306	1.29696
210	2188	21.714409862306	1.646208
210	2423	23.161641862306	1.097984
210	3388	79.893256849575	0.755776
210	3712	81.265096849575	1.37184
210	3925	82.911304849575	1.646208
210	4116	84.573640849575	0.83168
210	4430	86.692680849575	1.570304
210	4652	88.413768849575	1.172352
210	4874	90.907784849575	0.5568
210	5303	93.696142774343	0.830656
210	5525	95.357454774343	0.910336
210	5756	97.301710774343	0.78512
210	6188	111.181091864946	0.968352
214	120	4.052736	1000
214	124	4.052736	1001
214	124	4.052736	1002
214	124	4.052736	1003
214	127	4.052736	1004
214	127	4.052736	1005
214	127	4.052736	1006
214	398	4.655584	1007
214	398	4.655584	1008
214	398	4.655584	1009
214	438	4.929952	1010
214	438	4.929952	1011
214	438	4.929952	1012
214	478	5.211872	1013
214	478	5.211872	1014
214	478	5.211872	1015
214	478	5.211872	1016
214	478	5.211872	1017
214	478	5.211872	1018
214	478	5.211872	1019
214	478	5.211872	1020
214	478	5.211872	1021
214	536	5.48624	1022
214	536	5.48624	1023
214	536	5.48624	1024
214	630	6.053216	1025
214	630	6.053216	1026
214	630	6.053216	1027
214	630	6.053216	1028
214	630	6.053216	1029
214	630	6.053216	1030
214	630	6.053216	1031
214	630	6.053216	1032
214	630	6.053216	1033
214	684	6.327584	1034
214	684	6.327584	1035
214	684	6.327584	1036
214	757	6.87632	1037
214	757	6.87632	1038
214	757	6.87632	1039
214	757	6.87632	1040
214	757	6.87632	1041
214	757	6.87632	1042
214	805	7.150688	1043
214	805	7.150688	1044
214	805	7.150688	1045
214	871	7.774304	1046
214	871	7.774304	1047
214	871	7.774304	1048
214	871	7.774304	1049
214	871	7.774304	1050
214	871	7.774304	1051
214	918	8.048672	1052
214	918	8.048672	1053
214	918	8.048672	1054
214	998	8.597408	1055
214	998	8.597408	1056
214	998	8.597408	1057
214	1038	8.871776	1058
214	1038	8.871776	1059
214	1038	8.871776	1060
214	1117	9.894368	1061
214	1117	9.894368	1062
214	1117	9.894368	1063
214	1218	12.833069954102	1064
214	1218	12.833069954102	1065
214	1218	12.833069954102	1066
214	1296	13.663725954102	1067
214	1296	13.663725954102	1068
214	1296	13.663725954102	1069
214	1296	13.663725954102	1070
214	1296	13.663725954102	1071
214	1296	13.663725954102	1072
214	1296	13.663725954102	1073
214	1296	13.663725954102	1074
214	1296	13.663725954102	1075
214	1444	17.184809862306	1076
214	1444	17.184809862306	1077
214	1444	17.184809862306	1078
214	1444	17.184809862306	1079
214	1444	17.184809862306	1080
214	1444	17.184809862306	1081
214	1538	17.940585862306	1082
214	1538	17.940585862306	1083
214	1538	17.940585862306	1084
214	1538	17.940585862306	1085
214	1538	17.940585862306	1086
214	1538	17.940585862306	1087
214	1538	17.940585862306	1088
214	1538	17.940585862306	1089
214	1538	17.940585862306	1090
214	1593	18.496873862306	1091
214	1593	18.496873862306	1092
214	1593	18.496873862306	1093
214	1633	18.771241862306	1094
214	1633	18.771241862306	1095
214	1633	18.771241862306	1096
214	1673	19.045609862306	1097
214	1673	19.045609862306	1098
214	1673	19.045609862306	1099
214	1673	19.045609862306	1100
214	1673	19.045609862306	1101
214	1673	19.045609862306	1102
214	1824	19.319977862306	1103
214	1824	19.319977862306	1104
214	1824	19.319977862306	1105
214	1868	19.594345862306	1106
214	1868	19.594345862306	1107
214	1868	19.594345862306	1108
214	1933	20.068201862306	1109
214	1933	20.068201862306	1110
214	1933	20.068201862306	1111
214	1933	20.068201862306	1112
214	1933	20.068201862306	1113
214	1933	20.068201862306	1114
214	1984	20.342569862306	1115
214	1984	20.342569862306	1116
214	1984	20.342569862306	1117
214	2026	20.616937862306	1118
214	2026	20.616937862306	1119
214	2026	20.616937862306	1120
214	2070	20.891305862306	1121
214	2070	20.891305862306	1122
214	2070	20.891305862306	1123
214	2139	21.440041862306	1124
214	2139	21.440041862306	1125
214	2139	21.440041862306	1126
214	2139	21.440041862306	1127
214	2139	21.440041862306	1128
214	2139	21.440041862306	1129
214	2188	21.714409862306	1130
214	2188	21.714409862306	1131
214	2188	21.714409862306	1132
214	2188	21.714409862306	1133
214	2188	21.714409862306	1134
214	2188	21.714409862306	1135
214	2260	22.063657862306	1136
214	2260	22.063657862306	1137
214	2260	22.063657862306	1138
214	2260	22.063657862306	1139
214	2260	22.063657862306	1140
214	2260	22.063657862306	1141
214	2305	22.338537862306	1142
214	2305	22.338537862306	1143
214	2305	22.338537862306	1144
214	2423	23.161641862306	1145
214	2423	23.161641862306	1146
214	2423	23.161641862306	1147
214	2471	23.709865862306	1148
214	2471	23.709865862306	1149
214	2471	23.709865862306	1150
214	2703	35.821946389439	1151
214	2703	35.821946389439	1152
214	2703	35.821946389439	1153
214	2804	48.854089876151	1154
214	2804	48.854089876151	1155
214	2804	48.854089876151	1156
214	2804	48.854089876151	1157
214	2804	48.854089876151	1158
214	2804	48.854089876151	1159
214	2994	49.745289876151	1160
214	2994	49.745289876151	1161
214	2994	49.745289876151	1162
214	2994	49.745289876151	1163
214	2994	49.745289876151	1164
214	2994	49.745289876151	1165
214	3166	78.583464849575	1166
214	3166	78.583464849575	1167
214	3166	78.583464849575	1168
214	3166	78.583464849575	1169
214	3166	78.583464849575	1170
214	3166	78.583464849575	1171
214	3277	79.137480849575	1172
214	3277	79.137480849575	1173
214	3277	79.137480849575	1174
214	3277	79.137480849575	1175
214	3277	79.137480849575	1176
214	3277	79.137480849575	1177
214	3331	79.413000849575	1178
214	3331	79.413000849575	1179
214	3331	79.413000849575	1180
214	3331	79.413000849575	1181
214	3331	79.413000849575	1182
214	3331	79.413000849575	1183
214	3388	79.893256849575	1184
214	3388	79.893256849575	1185
214	3388	79.893256849575	1186
214	3388	79.893256849575	1187
214	3388	79.893256849575	1188
214	3388	79.893256849575	1189
214	3464	80.441992849575	1190
214	3464	80.441992849575	1191
214	3464	80.441992849575	1192
214	3464	80.441992849575	1193
214	3464	80.441992849575	1194
214	3464	80.441992849575	1195
214	3464	80.441992849575	1196
214	3464	80.441992849575	1197
214	3464	80.441992849575	1198
214	3519	80.716360849575	1199
214	3519	80.716360849575	1200
214	3519	80.716360849575	1201
214	3668	80.990728849575	1202
214	3668	80.990728849575	1203
214	3668	80.990728849575	1204
214	3712	81.265096849575	1205
214	3712	81.265096849575	1206
214	3712	81.265096849575	1207
214	3757	81.539464849575	1208
214	3757	81.539464849575	1209
214	3757	81.539464849575	1210
214	3925	82.911304849575	1211
214	3925	82.911304849575	1212
214	3925	82.911304849575	1213
214	3925	82.911304849575	1214
214	3925	82.911304849575	1215
214	3925	82.911304849575	1216
214	3925	82.911304849575	1217
214	3925	82.911304849575	1218
214	3925	82.911304849575	1219
214	3925	82.911304849575	1220
214	3925	82.911304849575	1221
214	3925	82.911304849575	1222
214	4012	83.741960849575	1223
214	4012	83.741960849575	1224
214	4012	83.741960849575	1225
214	4012	83.741960849575	1226
214	4012	83.741960849575	1227
214	4012	83.741960849575	1228
214	4012	83.741960849575	1229
214	4012	83.741960849575	1230
214	4012	83.741960849575	1231
214	4012	83.741960849575	1232
214	4012	83.741960849575	1233
214	4012	83.741960849575	1234
214	4064	84.016840849575	1235
214	4064	84.016840849575	1236
214	4064	84.016840849575	1237
214	4196	85.122376849575	1238
214	4196	85.122376849575	1239
214	4196	85.122376849575	1240
214	4275	85.670600849575	1241
214	4275	85.670600849575	1242
214	4275	85.670600849575	1243
214	4275	85.670600849575	1244
214	4275	85.670600849575	1245
214	4275	85.670600849575	1246
214	4376	86.418312849575	1247
214	4376	86.418312849575	1248
214	4376	86.418312849575	1249
214	4376	86.418312849575	1250
214	4376	86.418312849575	1251
214	4376	86.418312849575	1252
214	4376	86.418312849575	1253
214	4376	86.418312849575	1254
214	4376	86.418312849575	1255
214	4430	86.692680849575	1256
214	4430	86.692680849575	1257
214	4430	86.692680849575	1258
214	4476	86.967048849575	1259
214	4476	86.967048849575	1260
214	4476	86.967048849575	1261
214	4520	87.241416849575	1262
214	4520	87.241416849575	1263
214	4520	87.241416849575	1264
214	4564	87.515784849575	1265
214	4564	87.515784849575	1266
214	4564	87.515784849575	1267
214	4652	88.413768849575	1268
214	4652	88.413768849575	1269
214	4652	88.413768849575	1270
214	4652	88.413768849575	1271
214	4652	88.413768849575	1272
214	4652	88.413768849575	1273
214	4652	88.413768849575	1274
214	4652	88.413768849575	1275
214	4652	88.413768849575	1276
214	4652	88.413768849575	1277
214	4652	88.413768849575	1278
214	4652	88.413768849575	1279
214	4712	88.970568849575	1280
214	4712	88.970568849575	1281
214	4712	88.970568849575	1282
214	4834	90.350984849575	1283
214	4834	90.350984849575	1284
214	4834	90.350984849575	1285
214	4874	90.907784849575	1286
214	4874	90.907784849575	1287
214	4874	90.907784849575	1288
214	4950	91.738440849575	1289
214	4950	91.738440849575	1290
214	4950	91.738440849575	1291
214	4950	91.738440849575	1292
214	4950	91.738440849575	1293
214	4950	91.738440849575	1294
214	5124	92.865486774343	1295
214	5124	92.865486774343	1296
214	5124	92.865486774343	1297
214	5124	92.865486774343	1298
214	5124	92.865486774343	1299
214	5124	92.865486774343	1300
214	5303	93.696142774343	1301
214	5303	93.696142774343	1302
214	5303	93.696142774343	1303
214	5343	94.252430774343	1304
214	5343	94.252430774343	1305
214	5343	94.252430774343	1306
214	5352	94.447118774343	1307
214	5352	94.447118774343	1308
214	5352	94.447118774343	1309
214	5525	95.357454774343	1310
214	5525	95.357454774343	1311
214	5525	95.357454774343	1312
214	5525	95.357454774343	1313
214	5525	95.357454774343	1314
214	5525	95.357454774343	1315
214	5525	95.357454774343	1316
214	5525	95.357454774343	1317
214	5525	95.357454774343	1318
214	5578	95.913742774343	1319
214	5578	95.913742774343	1320
214	5578	95.913742774343	1321
214	5623	96.188622774343	1322
214	5623	96.188622774343	1323
214	5623	96.188622774343	1324
214	5676	96.470542774343	1325
214	5676	96.470542774343	1326
214	5676	96.470542774343	1327
214	5709	96.516590774343	1328
214	5709	96.516590774343	1329
214	5709	96.516590774343	1330
214	5756	97.301710774343	1331
214	5756	97.301710774343	1332
214	5756	97.301710774343	1333
214	5899	103.807285221248	1334
214	5899	103.807285221248	1335
214	5899	103.807285221248	1336
214	6000	104.563061221248	1337
214	6000	104.563061221248	1338
214	6000	104.563061221248	1339
214	6000	104.563061221248	1340
214	6000	104.563061221248	1341
214	6000	104.563061221248	1342
214	6000	104.563061221248	1343
214	6000	104.563061221248	1344
214	6000	104.563061221248	1345
214	6133	110.212739864946	1346
214	6133	110.212739864946	1347
214	6133	110.212739864946	1348
214	6133	110.212739864946	1349
214	6133	110.212739864946	1350
214	6133	110.212739864946	1351
214	6133	110.212739864946	1352
214	6133	110.212739864946	1353
214	6133	110.212739864946	1354
214	6188	111.181091864946	1355
214	6188	111.181091864946	1356
214	6188	111.181091864946	1357
218	2754	37.054272	1
218	3107	73.054272	2
218	5932	104.054272	3
217	2754	37.054272	1
217	3107	73.054272	2
217	5932	104.054272	3
220	120	4.052736	1400
220	124	4.052736	2800
220	124	4.052736	4200
220	124	4.052736	5600
220	127	4.052736	7000
220	127	4.052736	8400
220	127	4.052736	9800
220	398	4.655584	11200
220	398	4.655584	12600
220	398	4.655584	14000
220	438	4.929952	15400
220	438	4.929952	16800
220	438	4.929952	18200
220	478	5.211872	19600
220	478	5.211872	21000
220	478	5.211872	22400
220	478	5.211872	23800
220	478	5.211872	25200
220	478	5.211872	26600
220	478	5.211872	28000
220	478	5.211872	29400
220	478	5.211872	30800
220	536	5.48624	32200
220	536	5.48624	33600
220	536	5.48624	35000
220	630	6.053216	33600
220	630	6.053216	32200
220	630	6.053216	30800
220	630	6.053216	29400
220	630	6.053216	28000
220	630	6.053216	26600
220	630	6.053216	25200
220	630	6.053216	23800
220	630	6.053216	22400
220	630	6.053216	21000
220	630	6.053216	19600
220	630	6.053216	18200
220	630	6.053216	16800
220	630	6.053216	15400
220	630	6.053216	14000
220	630	6.053216	12600
220	630	6.053216	14000
220	630	6.053216	15400
220	630	6.053216	16800
220	630	6.053216	18200
220	630	6.053216	19600
220	630	6.053216	21000
220	630	6.053216	22400
220	630	6.053216	23800
220	630	6.053216	25200
220	684	6.327584	23800
220	684	6.327584	22400
220	684	6.327584	21000
220	684	6.327584	22400
220	684	6.327584	23800
220	684	6.327584	25200
220	757	6.87632	23800
220	757	6.87632	22400
220	757	6.87632	21000
220	757	6.87632	19600
220	757	6.87632	18200
220	757	6.87632	16800
220	757	6.87632	18200
220	757	6.87632	19600
220	757	6.87632	21000
220	757	6.87632	22400
220	757	6.87632	23800
220	757	6.87632	25200
220	805	7.150688	23800
220	805	7.150688	22400
220	805	7.150688	21000
220	805	7.150688	22400
220	805	7.150688	23800
220	805	7.150688	25200
220	871	7.774304	26600
220	871	7.774304	28000
220	871	7.774304	29400
220	871	7.774304	30800
220	871	7.774304	32200
220	871	7.774304	33600
220	918	8.048672	35000
220	918	8.048672	36400
220	918	8.048672	37800
220	998	8.597408	39200
220	998	8.597408	40600
220	998	8.597408	42000
220	1038	8.871776	43400
220	1038	8.871776	44800
220	1038	8.871776	46200
220	1117	9.894368	44800
220	1117	9.894368	43400
220	1117	9.894368	42000
220	1117	9.894368	40600
220	1117	9.894368	39200
220	1117	9.894368	37800
220	1117	9.894368	36400
220	1117	9.894368	35000
220	1117	9.894368	33600
220	1117	9.894368	32200
220	1117	9.894368	30800
220	1117	9.894368	29400
220	1117	9.894368	28000
220	1117	9.894368	26600
220	1117	9.894368	25200
220	1117	9.894368	23800
220	1117	9.894368	22400
220	1117	9.894368	21000
220	1117	9.894368	19600
220	1117	9.894368	18200
220	1117	9.894368	16800
220	1117	9.894368	18200
220	1117	9.894368	19600
220	1117	9.894368	21000
220	1173	12.139085954102	19600
220	1173	12.139085954102	21000
220	1173	12.139085954102	19600
220	1173	12.139085954102	21000
220	1173	12.139085954102	19600
220	1173	12.139085954102	21000
220	1173	12.139085954102	19600
220	1173	12.139085954102	21000
220	1173	12.139085954102	19600
220	1173	12.139085954102	21000
220	1173	12.139085954102	19600
220	1173	12.139085954102	21000
220	1173	12.139085954102	19600
220	1173	12.139085954102	21000
220	1173	12.139085954102	19600
220	1173	12.139085954102	21000
220	1173	12.139085954102	19600
220	1173	12.139085954102	21000
220	1173	12.139085954102	19600
220	1173	12.139085954102	21000
220	1173	12.139085954102	19600
220	1173	12.139085954102	21000
220	1173	12.139085954102	19600
220	1173	12.139085954102	21000
220	1173	12.139085954102	19600
220	1173	12.139085954102	21000
220	1173	12.139085954102	19600
220	1173	12.139085954102	21000
220	1173	12.139085954102	19600
220	1173	12.139085954102	21000
220	1218	12.833069954102	22400
220	1218	12.833069954102	23800
220	1218	12.833069954102	25200
220	1296	13.663725954102	26600
220	1296	13.663725954102	28000
220	1296	13.663725954102	29400
220	1296	13.663725954102	30800
220	1296	13.663725954102	32200
220	1296	13.663725954102	33600
220	1296	13.663725954102	35000
220	1296	13.663725954102	36400
220	1296	13.663725954102	37800
220	1378	16.628521862306	36400
220	1378	16.628521862306	37800
220	1378	16.628521862306	36400
220	1378	16.628521862306	37800
220	1378	16.628521862306	36400
220	1378	16.628521862306	37800
220	1378	16.628521862306	36400
220	1378	16.628521862306	37800
220	1378	16.628521862306	36400
220	1378	16.628521862306	37800
220	1378	16.628521862306	36400
220	1378	16.628521862306	37800
220	1378	16.628521862306	36400
220	1378	16.628521862306	37800
220	1378	16.628521862306	36400
220	1378	16.628521862306	37800
220	1378	16.628521862306	36400
220	1378	16.628521862306	37800
220	1378	16.628521862306	36400
220	1378	16.628521862306	37800
220	1378	16.628521862306	36400
220	1378	16.628521862306	37800
220	1378	16.628521862306	36400
220	1378	16.628521862306	37800
220	1444	17.184809862306	36400
220	1444	17.184809862306	35000
220	1444	17.184809862306	33600
220	1444	17.184809862306	32200
220	1444	17.184809862306	30800
220	1444	17.184809862306	29400
220	1444	17.184809862306	28000
220	1444	17.184809862306	26600
220	1444	17.184809862306	25200
220	1444	17.184809862306	23800
220	1444	17.184809862306	22400
220	1444	17.184809862306	21000
220	1444	17.184809862306	19600
220	1444	17.184809862306	18200
220	1444	17.184809862306	16800
220	1444	17.184809862306	15400
220	1444	17.184809862306	14000
220	1444	17.184809862306	12600
220	1444	17.184809862306	14000
220	1444	17.184809862306	15400
220	1444	17.184809862306	16800
220	1444	17.184809862306	18200
220	1444	17.184809862306	19600
220	1444	17.184809862306	21000
220	1538	17.940585862306	19600
220	1538	17.940585862306	18200
220	1538	17.940585862306	16800
220	1538	17.940585862306	15400
220	1538	17.940585862306	14000
220	1538	17.940585862306	12600
220	1538	17.940585862306	11200
220	1538	17.940585862306	9800
220	1538	17.940585862306	8400
220	1538	17.940585862306	7000
220	1538	17.940585862306	5600
220	1538	17.940585862306	4200
220	1538	17.940585862306	5600
220	1538	17.940585862306	7000
220	1538	17.940585862306	8400
220	1538	17.940585862306	9800
220	1538	17.940585862306	11200
220	1538	17.940585862306	12600
220	1538	17.940585862306	14000
220	1538	17.940585862306	15400
220	1538	17.940585862306	16800
220	1593	18.496873862306	18200
220	1593	18.496873862306	19600
220	1593	18.496873862306	21000
220	1633	18.771241862306	22400
220	1633	18.771241862306	23800
220	1633	18.771241862306	25200
220	1673	19.045609862306	26600
220	1673	19.045609862306	28000
220	1673	19.045609862306	29400
220	1673	19.045609862306	30800
220	1673	19.045609862306	32200
220	1673	19.045609862306	33600
220	1824	19.319977862306	35000
220	1824	19.319977862306	36400
220	1824	19.319977862306	37800
220	1868	19.594345862306	39200
220	1868	19.594345862306	40600
220	1868	19.594345862306	42000
220	1933	20.068201862306	40600
220	1933	20.068201862306	39200
220	1933	20.068201862306	37800
220	1933	20.068201862306	36400
220	1933	20.068201862306	35000
220	1933	20.068201862306	33600
220	1933	20.068201862306	32200
220	1933	20.068201862306	30800
220	1933	20.068201862306	29400
220	1933	20.068201862306	28000
220	1933	20.068201862306	26600
220	1933	20.068201862306	25200
220	1933	20.068201862306	23800
220	1933	20.068201862306	22400
220	1933	20.068201862306	21000
220	1933	20.068201862306	19600
220	1933	20.068201862306	18200
220	1933	20.068201862306	16800
220	1933	20.068201862306	18200
220	1933	20.068201862306	19600
220	1933	20.068201862306	21000
220	1933	20.068201862306	22400
220	1933	20.068201862306	23800
220	1933	20.068201862306	25200
220	1984	20.342569862306	23800
220	1984	20.342569862306	22400
220	1984	20.342569862306	21000
220	1984	20.342569862306	22400
220	1984	20.342569862306	23800
220	1984	20.342569862306	25200
220	2026	20.616937862306	23800
220	2026	20.616937862306	22400
220	2026	20.616937862306	21000
220	2026	20.616937862306	22400
220	2026	20.616937862306	23800
220	2026	20.616937862306	25200
220	2070	20.891305862306	23800
220	2070	20.891305862306	22400
220	2070	20.891305862306	21000
220	2070	20.891305862306	22400
220	2070	20.891305862306	23800
220	2070	20.891305862306	25200
220	2139	21.440041862306	23800
220	2139	21.440041862306	22400
220	2139	21.440041862306	21000
220	2139	21.440041862306	19600
220	2139	21.440041862306	18200
220	2139	21.440041862306	16800
220	2139	21.440041862306	18200
220	2139	21.440041862306	19600
220	2139	21.440041862306	21000
220	2139	21.440041862306	22400
220	2139	21.440041862306	23800
220	2139	21.440041862306	25200
220	2188	21.714409862306	23800
220	2188	21.714409862306	22400
220	2188	21.714409862306	21000
220	2188	21.714409862306	22400
220	2188	21.714409862306	23800
220	2188	21.714409862306	25200
220	2188	21.714409862306	26600
220	2188	21.714409862306	28000
220	2188	21.714409862306	29400
220	2260	22.063657862306	30800
220	2260	22.063657862306	32200
220	2260	22.063657862306	33600
220	2260	22.063657862306	35000
220	2260	22.063657862306	36400
220	2260	22.063657862306	37800
220	2305	22.338537862306	39200
220	2305	22.338537862306	40600
220	2305	22.338537862306	42000
220	2423	23.161641862306	43400
220	2423	23.161641862306	44800
220	2423	23.161641862306	46200
220	2471	23.709865862306	47600
220	2471	23.709865862306	49000
220	2471	23.709865862306	50400
220	2489	26.668146646083	49000
220	2489	26.668146646083	50400
220	2489	26.668146646083	49000
220	2489	26.668146646083	50400
220	2489	26.668146646083	49000
220	2489	26.668146646083	50400
220	2489	26.668146646083	49000
220	2489	26.668146646083	50400
220	2489	26.668146646083	49000
220	2489	26.668146646083	50400
220	2489	26.668146646083	49000
220	2489	26.668146646083	50400
220	2489	26.668146646083	49000
220	2489	26.668146646083	50400
220	2489	26.668146646083	49000
220	2489	26.668146646083	50400
220	2489	26.668146646083	49000
220	2489	26.668146646083	50400
220	2489	26.668146646083	49000
220	2489	26.668146646083	50400
220	2489	26.668146646083	49000
220	2489	26.668146646083	50400
220	2489	26.668146646083	49000
220	2489	26.668146646083	50400
220	2489	26.668146646083	49000
220	2489	26.668146646083	50400
220	2489	26.668146646083	49000
220	2489	26.668146646083	50400
220	2489	26.668146646083	49000
220	2489	26.668146646083	50400
220	2558	33.877690389439	49000
220	2558	33.877690389439	50400
220	2558	33.877690389439	49000
220	2558	33.877690389439	50400
220	2558	33.877690389439	49000
220	2558	33.877690389439	50400
220	2558	33.877690389439	49000
220	2558	33.877690389439	50400
220	2558	33.877690389439	49000
220	2558	33.877690389439	50400
220	2558	33.877690389439	49000
220	2558	33.877690389439	50400
220	2601	34.435002389439	49000
220	2601	34.435002389439	47600
220	2601	34.435002389439	46200
220	2601	34.435002389439	44800
220	2601	34.435002389439	43400
220	2601	34.435002389439	42000
220	2601	34.435002389439	40600
220	2601	34.435002389439	39200
220	2601	34.435002389439	37800
220	2601	34.435002389439	36400
220	2601	34.435002389439	35000
220	2601	34.435002389439	33600
220	2601	34.435002389439	32200
220	2601	34.435002389439	30800
220	2601	34.435002389439	29400
220	2601	34.435002389439	28000
220	2601	34.435002389439	26600
220	2601	34.435002389439	25200
220	2601	34.435002389439	23800
220	2601	34.435002389439	22400
220	2601	34.435002389439	21000
220	2601	34.435002389439	19600
220	2601	34.435002389439	18200
220	2601	34.435002389439	16800
220	2703	35.821946389439	18200
220	2703	35.821946389439	19600
220	2703	35.821946389439	21000
220	2804	48.854089876151	19600
220	2804	48.854089876151	18200
220	2804	48.854089876151	16800
220	2804	48.854089876151	15400
220	2804	48.854089876151	14000
220	2804	48.854089876151	12600
220	2804	48.854089876151	11200
220	2804	48.854089876151	9800
220	2804	48.854089876151	8400
220	2804	48.854089876151	9800
220	2804	48.854089876151	11200
220	2804	48.854089876151	12600
220	2804	48.854089876151	14000
220	2804	48.854089876151	15400
220	2804	48.854089876151	16800
220	2994	49.745289876151	15400
220	2994	49.745289876151	14000
220	2994	49.745289876151	12600
220	2994	49.745289876151	11200
220	2994	49.745289876151	9800
220	2994	49.745289876151	8400
220	2994	49.745289876151	7000
220	2994	49.745289876151	5600
220	2994	49.745289876151	4200
220	2994	49.745289876151	5600
220	2994	49.745289876151	7000
220	2994	49.745289876151	8400
220	2994	49.745289876151	9800
220	2994	49.745289876151	11200
220	2994	49.745289876151	12600
220	3166	78.583464849575	11200
220	3166	78.583464849575	9800
220	3166	78.583464849575	8400
220	3166	78.583464849575	7000
220	3166	78.583464849575	5600
220	3166	78.583464849575	4200
220	3166	78.583464849575	2800
220	3166	78.583464849575	1400
220	3166	78.583464849575	0
220	3166	78.583464849575	1400
220	3166	78.583464849575	2800
220	3166	78.583464849575	4200
220	3166	78.583464849575	5600
220	3166	78.583464849575	7000
220	3166	78.583464849575	8400
220	3277	79.137480849575	7000
220	3277	79.137480849575	5600
220	3277	79.137480849575	4200
220	3277	79.137480849575	5600
220	3277	79.137480849575	7000
220	3277	79.137480849575	8400
220	3277	79.137480849575	9800
220	3277	79.137480849575	11200
220	3277	79.137480849575	12600
220	3331	79.413000849575	11200
220	3331	79.413000849575	9800
220	3331	79.413000849575	8400
220	3331	79.413000849575	9800
220	3331	79.413000849575	11200
220	3331	79.413000849575	12600
220	3331	79.413000849575	14000
220	3331	79.413000849575	15400
220	3331	79.413000849575	16800
220	3388	79.893256849575	15400
220	3388	79.893256849575	14000
220	3388	79.893256849575	12600
220	3388	79.893256849575	14000
220	3388	79.893256849575	15400
220	3388	79.893256849575	16800
220	3388	79.893256849575	18200
220	3388	79.893256849575	19600
220	3388	79.893256849575	21000
220	3464	80.441992849575	19600
220	3464	80.441992849575	18200
220	3464	80.441992849575	16800
220	3464	80.441992849575	15400
220	3464	80.441992849575	14000
220	3464	80.441992849575	12600
220	3464	80.441992849575	14000
220	3464	80.441992849575	15400
220	3464	80.441992849575	16800
220	3464	80.441992849575	18200
220	3464	80.441992849575	19600
220	3464	80.441992849575	21000
220	3464	80.441992849575	22400
220	3464	80.441992849575	23800
220	3464	80.441992849575	25200
220	3519	80.716360849575	23800
220	3519	80.716360849575	22400
220	3519	80.716360849575	21000
220	3519	80.716360849575	22400
220	3519	80.716360849575	23800
220	3519	80.716360849575	25200
220	3668	80.990728849575	23800
220	3668	80.990728849575	22400
220	3668	80.990728849575	21000
220	3668	80.990728849575	22400
220	3668	80.990728849575	23800
220	3668	80.990728849575	25200
220	3712	81.265096849575	23800
220	3712	81.265096849575	22400
220	3712	81.265096849575	21000
220	3712	81.265096849575	22400
220	3712	81.265096849575	23800
220	3712	81.265096849575	25200
220	3757	81.539464849575	23800
220	3757	81.539464849575	22400
220	3757	81.539464849575	21000
220	3757	81.539464849575	22400
220	3757	81.539464849575	23800
220	3757	81.539464849575	25200
220	3925	82.911304849575	23800
220	3925	82.911304849575	22400
220	3925	82.911304849575	21000
220	3925	82.911304849575	19600
220	3925	82.911304849575	18200
220	3925	82.911304849575	16800
220	3925	82.911304849575	15400
220	3925	82.911304849575	14000
220	3925	82.911304849575	12600
220	3925	82.911304849575	11200
220	3925	82.911304849575	9800
220	3925	82.911304849575	8400
220	3925	82.911304849575	7000
220	3925	82.911304849575	5600
220	3925	82.911304849575	4200
220	3925	82.911304849575	5600
220	3925	82.911304849575	7000
220	3925	82.911304849575	8400
220	3925	82.911304849575	9800
220	3925	82.911304849575	11200
220	3925	82.911304849575	12600
220	3925	82.911304849575	14000
220	3925	82.911304849575	15400
220	3925	82.911304849575	16800
220	3925	82.911304849575	18200
220	3925	82.911304849575	19600
220	3925	82.911304849575	21000
220	4012	83.741960849575	19600
220	4012	83.741960849575	18200
220	4012	83.741960849575	16800
220	4012	83.741960849575	18200
220	4012	83.741960849575	19600
220	4012	83.741960849575	21000
220	4012	83.741960849575	22400
220	4012	83.741960849575	23800
220	4012	83.741960849575	25200
220	4012	83.741960849575	26600
220	4012	83.741960849575	28000
220	4012	83.741960849575	29400
220	4012	83.741960849575	30800
220	4012	83.741960849575	32200
220	4012	83.741960849575	33600
220	4064	84.016840849575	35000
220	4064	84.016840849575	36400
220	4064	84.016840849575	37800
220	4196	85.122376849575	39200
220	4196	85.122376849575	40600
220	4196	85.122376849575	42000
220	4275	85.670600849575	40600
220	4275	85.670600849575	39200
220	4275	85.670600849575	37800
220	4275	85.670600849575	36400
220	4275	85.670600849575	35000
220	4275	85.670600849575	33600
220	4275	85.670600849575	35000
220	4275	85.670600849575	36400
220	4275	85.670600849575	37800
220	4275	85.670600849575	39200
220	4275	85.670600849575	40600
220	4275	85.670600849575	42000
220	4376	86.418312849575	40600
220	4376	86.418312849575	39200
220	4376	86.418312849575	37800
220	4376	86.418312849575	36400
220	4376	86.418312849575	35000
220	4376	86.418312849575	33600
220	4376	86.418312849575	32200
220	4376	86.418312849575	30800
220	4376	86.418312849575	29400
220	4376	86.418312849575	28000
220	4376	86.418312849575	26600
220	4376	86.418312849575	25200
220	4376	86.418312849575	23800
220	4376	86.418312849575	22400
220	4376	86.418312849575	21000
220	4376	86.418312849575	19600
220	4376	86.418312849575	18200
220	4376	86.418312849575	16800
220	4376	86.418312849575	15400
220	4376	86.418312849575	14000
220	4376	86.418312849575	12600
220	4376	86.418312849575	14000
220	4376	86.418312849575	15400
220	4376	86.418312849575	16800
220	4376	86.418312849575	18200
220	4376	86.418312849575	19600
220	4376	86.418312849575	21000
220	4376	86.418312849575	22400
220	4376	86.418312849575	23800
220	4376	86.418312849575	25200
220	4430	86.692680849575	23800
220	4430	86.692680849575	22400
220	4430	86.692680849575	21000
220	4430	86.692680849575	22400
220	4430	86.692680849575	23800
220	4430	86.692680849575	25200
220	4476	86.967048849575	23800
220	4476	86.967048849575	22400
220	4476	86.967048849575	21000
220	4476	86.967048849575	22400
220	4476	86.967048849575	23800
220	4476	86.967048849575	25200
220	4520	87.241416849575	23800
220	4520	87.241416849575	22400
220	4520	87.241416849575	21000
220	4520	87.241416849575	22400
220	4520	87.241416849575	23800
220	4520	87.241416849575	25200
220	4564	87.515784849575	23800
220	4564	87.515784849575	22400
220	4564	87.515784849575	21000
220	4564	87.515784849575	22400
220	4564	87.515784849575	23800
220	4564	87.515784849575	25200
220	4652	88.413768849575	23800
220	4652	88.413768849575	22400
220	4652	88.413768849575	21000
220	4652	88.413768849575	22400
220	4652	88.413768849575	23800
220	4652	88.413768849575	25200
220	4652	88.413768849575	26600
220	4652	88.413768849575	28000
220	4652	88.413768849575	29400
220	4652	88.413768849575	30800
220	4652	88.413768849575	32200
220	4652	88.413768849575	33600
220	4652	88.413768849575	35000
220	4652	88.413768849575	36400
220	4652	88.413768849575	37800
220	4712	88.970568849575	39200
220	4712	88.970568849575	40600
220	4712	88.970568849575	42000
220	4834	90.350984849575	43400
220	4834	90.350984849575	44800
220	4834	90.350984849575	46200
220	4874	90.907784849575	47600
220	4874	90.907784849575	49000
220	4874	90.907784849575	50400
220	4950	91.738440849575	51800
220	4950	91.738440849575	53200
220	4950	91.738440849575	54600
220	4950	91.738440849575	56000
220	4950	91.738440849575	57400
220	4950	91.738440849575	58800
220	4968	92.029518774343	57400
220	4968	92.029518774343	56000
220	4968	92.029518774343	54600
220	4968	92.029518774343	53200
220	4968	92.029518774343	51800
220	4968	92.029518774343	50400
220	4968	92.029518774343	49000
220	4968	92.029518774343	47600
220	4968	92.029518774343	46200
220	4968	92.029518774343	44800
220	4968	92.029518774343	43400
220	4968	92.029518774343	42000
220	4968	92.029518774343	40600
220	4968	92.029518774343	39200
220	4968	92.029518774343	37800
220	5124	92.865486774343	39200
220	5124	92.865486774343	40600
220	5124	92.865486774343	42000
220	5124	92.865486774343	43400
220	5124	92.865486774343	44800
220	5124	92.865486774343	46200
220	5303	93.696142774343	47600
220	5303	93.696142774343	49000
220	5303	93.696142774343	50400
220	5343	94.252430774343	51800
220	5343	94.252430774343	53200
220	5343	94.252430774343	54600
220	5352	94.447118774343	56000
220	5352	94.447118774343	57400
220	5352	94.447118774343	58800
220	5352	94.447118774343	60200
220	5352	94.447118774343	61600
220	5352	94.447118774343	63000
220	5491	95.082574774343	61600
220	5491	95.082574774343	60200
220	5491	95.082574774343	58800
220	5491	95.082574774343	57400
220	5491	95.082574774343	56000
220	5491	95.082574774343	54600
220	5491	95.082574774343	53200
220	5491	95.082574774343	51800
220	5491	95.082574774343	50400
220	5491	95.082574774343	49000
220	5491	95.082574774343	47600
220	5491	95.082574774343	46200
220	5491	95.082574774343	44800
220	5491	95.082574774343	43400
220	5491	95.082574774343	42000
220	5491	95.082574774343	40600
220	5491	95.082574774343	39200
220	5491	95.082574774343	37800
220	5491	95.082574774343	36400
220	5491	95.082574774343	35000
220	5491	95.082574774343	33600
220	5491	95.082574774343	32200
220	5491	95.082574774343	30800
220	5491	95.082574774343	29400
220	5491	95.082574774343	28000
220	5491	95.082574774343	26600
220	5491	95.082574774343	25200
220	5491	95.082574774343	23800
220	5491	95.082574774343	22400
220	5491	95.082574774343	21000
220	5491	95.082574774343	19600
220	5491	95.082574774343	18200
220	5491	95.082574774343	16800
220	5491	95.082574774343	15400
220	5491	95.082574774343	14000
220	5491	95.082574774343	12600
220	5491	95.082574774343	11200
220	5491	95.082574774343	9800
220	5525	95.357454774343	11200
220	5525	95.357454774343	12600
220	5525	95.357454774343	14000
220	5525	95.357454774343	15400
220	5525	95.357454774343	16800
220	5525	95.357454774343	18200
220	5525	95.357454774343	19600
220	5525	95.357454774343	21000
220	5525	95.357454774343	22400
220	5578	95.913742774343	23800
220	5578	95.913742774343	25200
220	5578	95.913742774343	26600
220	5623	96.188622774343	28000
220	5623	96.188622774343	29400
220	5623	96.188622774343	30800
220	5676	96.470542774343	29400
220	5676	96.470542774343	28000
220	5676	96.470542774343	26600
220	5676	96.470542774343	28000
220	5676	96.470542774343	29400
220	5676	96.470542774343	30800
220	5709	96.516590774343	29400
220	5709	96.516590774343	28000
220	5709	96.516590774343	26600
220	5709	96.516590774343	25200
220	5709	96.516590774343	23800
220	5709	96.516590774343	22400
220	5709	96.516590774343	21000
220	5709	96.516590774343	22400
220	5709	96.516590774343	23800
220	5709	96.516590774343	25200
220	5756	97.301710774343	26600
220	5756	97.301710774343	28000
220	5756	97.301710774343	29400
220	5790	99.115317221248	28000
220	5790	99.115317221248	26600
220	5790	99.115317221248	25200
220	5790	99.115317221248	23800
220	5790	99.115317221248	22400
220	5790	99.115317221248	21000
220	5790	99.115317221248	19600
220	5790	99.115317221248	18200
220	5790	99.115317221248	16800
220	5790	99.115317221248	15400
220	5790	99.115317221248	14000
220	5790	99.115317221248	12600
220	5790	99.115317221248	11200
220	5790	99.115317221248	9800
220	5790	99.115317221248	8400
220	5869	99.807285221248	7000
220	5869	99.807285221248	5600
220	5869	99.807285221248	4200
220	5899	103.807285221248	5600
220	5899	103.807285221248	7000
220	5899	103.807285221248	8400
220	5899	103.807285221248	9800
220	5899	103.807285221248	11200
220	5899	103.807285221248	12600
220	5899	103.807285221248	14000
220	5899	103.807285221248	15400
220	5899	103.807285221248	16800
220	6000	104.563061221248	15400
220	6000	104.563061221248	14000
220	6000	104.563061221248	12600
220	6000	104.563061221248	11200
220	6000	104.563061221248	9800
220	6000	104.563061221248	8400
220	6000	104.563061221248	7000
220	6000	104.563061221248	5600
220	6000	104.563061221248	4200
220	6000	104.563061221248	5600
220	6000	104.563061221248	7000
220	6000	104.563061221248	8400
220	6000	104.563061221248	9800
220	6000	104.563061221248	11200
220	6000	104.563061221248	12600
220	6000	104.563061221248	14000
220	6000	104.563061221248	15400
220	6000	104.563061221248	16800
220	6077	109.594371864946	15400
220	6077	109.594371864946	14000
220	6077	109.594371864946	12600
220	6077	109.594371864946	11200
220	6077	109.594371864946	9800
220	6077	109.594371864946	8400
220	6077	109.594371864946	7000
220	6077	109.594371864946	5600
220	6077	109.594371864946	4200
220	6077	109.594371864946	2800
220	6077	109.594371864946	1400
220	6077	109.594371864946	0
220	6133	110.212739864946	1400
220	6133	110.212739864946	2800
220	6133	110.212739864946	4200
220	6133	110.212739864946	5600
220	6133	110.212739864946	7000
220	6133	110.212739864946	8400
220	6133	110.212739864946	9800
220	6133	110.212739864946	11200
220	6133	110.212739864946	12600
220	6188	111.181091864946	14000
220	6188	111.181091864946	15400
220	6188	111.181091864946	16800
220	6237	118.212739864946	18200
220	6237	118.212739864946	19600
220	6237	118.212739864946	21000
220	6237	118.212739864946	22400
220	6237	118.212739864946	23800
220	6237	118.212739864946	25200
221	120	4.052736	1400
221	124	4.052736	2800
221	124	4.052736	4200
221	124	4.052736	5600
221	127	4.052736	7000
221	127	4.052736	8400
221	127	4.052736	9800
221	398	4.655584	8400
221	398	4.655584	7000
221	398	4.655584	5600
221	398	4.655584	7000
221	398	4.655584	8400
221	398	4.655584	9800
221	438	4.929952	8400
221	438	4.929952	7000
221	438	4.929952	5600
221	438	4.929952	7000
221	438	4.929952	8400
221	438	4.929952	9800
221	478	5.211872	8400
221	478	5.211872	7000
221	478	5.211872	5600
221	478	5.211872	4200
221	478	5.211872	5600
221	478	5.211872	7000
221	478	5.211872	8400
221	478	5.211872	9800
221	478	5.211872	11200
221	478	5.211872	12600
221	478	5.211872	14000
221	478	5.211872	15400
221	478	5.211872	16800
221	478	5.211872	18200
221	536	5.48624	16800
221	536	5.48624	15400
221	536	5.48624	14000
221	536	5.48624	15400
221	536	5.48624	16800
221	536	5.48624	18200
221	630	6.053216	16800
221	630	6.053216	15400
221	630	6.053216	14000
221	630	6.053216	12600
221	630	6.053216	14000
221	630	6.053216	15400
221	630	6.053216	16800
221	630	6.053216	18200
221	630	6.053216	19600
221	630	6.053216	21000
221	630	6.053216	22400
221	630	6.053216	23800
221	630	6.053216	25200
221	684	6.327584	23800
221	684	6.327584	22400
221	684	6.327584	21000
221	684	6.327584	22400
221	684	6.327584	23800
221	684	6.327584	25200
221	757	6.87632	23800
221	757	6.87632	22400
221	757	6.87632	21000
221	757	6.87632	19600
221	757	6.87632	18200
221	757	6.87632	16800
221	757	6.87632	18200
221	757	6.87632	19600
221	757	6.87632	21000
221	757	6.87632	22400
221	757	6.87632	23800
221	757	6.87632	25200
221	805	7.150688	23800
221	805	7.150688	22400
221	805	7.150688	21000
221	805	7.150688	22400
221	805	7.150688	23800
221	805	7.150688	25200
221	871	7.774304	23800
221	871	7.774304	22400
221	871	7.774304	21000
221	871	7.774304	19600
221	871	7.774304	18200
221	871	7.774304	16800
221	871	7.774304	18200
221	871	7.774304	19600
221	871	7.774304	21000
221	871	7.774304	22400
221	871	7.774304	23800
221	871	7.774304	25200
221	918	8.048672	23800
221	918	8.048672	22400
221	918	8.048672	21000
221	918	8.048672	22400
221	918	8.048672	23800
221	918	8.048672	25200
221	958	8.32304	23800
221	958	8.32304	22400
221	958	8.32304	21000
221	958	8.32304	19600
221	958	8.32304	18200
221	958	8.32304	16800
221	958	8.32304	18200
221	958	8.32304	19600
221	958	8.32304	21000
221	998	8.597408	19600
221	998	8.597408	18200
221	998	8.597408	16800
221	998	8.597408	18200
221	998	8.597408	19600
221	998	8.597408	21000
221	1038	8.871776	19600
221	1038	8.871776	18200
221	1038	8.871776	16800
221	1038	8.871776	18200
221	1038	8.871776	19600
221	1038	8.871776	21000
221	1117	9.894368	19600
221	1117	9.894368	18200
221	1117	9.894368	16800
221	1117	9.894368	18200
221	1117	9.894368	19600
221	1117	9.894368	21000
221	1173	12.139085954102	19600
221	1173	12.139085954102	18200
221	1173	12.139085954102	16800
221	1173	12.139085954102	15400
221	1173	12.139085954102	14000
221	1173	12.139085954102	12600
221	1173	12.139085954102	11200
221	1173	12.139085954102	9800
221	1173	12.139085954102	8400
221	1173	12.139085954102	7000
221	1173	12.139085954102	5600
221	1173	12.139085954102	4200
221	1173	12.139085954102	2800
221	1173	12.139085954102	1400
221	1173	12.139085954102	0
221	1173	12.139085954102	1400
221	1173	12.139085954102	2800
221	1173	12.139085954102	4200
221	1173	12.139085954102	5600
221	1173	12.139085954102	7000
221	1173	12.139085954102	8400
221	1218	12.833069954102	7000
221	1218	12.833069954102	5600
221	1218	12.833069954102	4200
221	1218	12.833069954102	5600
221	1218	12.833069954102	7000
221	1218	12.833069954102	8400
221	1218	12.833069954102	9800
221	1218	12.833069954102	11200
221	1218	12.833069954102	12600
221	1296	13.663725954102	11200
221	1296	13.663725954102	9800
221	1296	13.663725954102	8400
221	1296	13.663725954102	7000
221	1296	13.663725954102	5600
221	1296	13.663725954102	4200
221	1296	13.663725954102	5600
221	1296	13.663725954102	7000
221	1296	13.663725954102	8400
221	1296	13.663725954102	9800
221	1296	13.663725954102	11200
221	1296	13.663725954102	12600
221	1296	13.663725954102	14000
221	1296	13.663725954102	15400
221	1296	13.663725954102	16800
221	1378	16.628521862306	15400
221	1378	16.628521862306	14000
221	1378	16.628521862306	12600
221	1378	16.628521862306	11200
221	1378	16.628521862306	9800
221	1378	16.628521862306	8400
221	1378	16.628521862306	7000
221	1378	16.628521862306	5600
221	1378	16.628521862306	4200
221	1378	16.628521862306	2800
221	1378	16.628521862306	1400
221	1378	16.628521862306	0
221	1378	16.628521862306	1400
221	1378	16.628521862306	2800
221	1378	16.628521862306	4200
221	1378	16.628521862306	5600
221	1378	16.628521862306	7000
221	1378	16.628521862306	8400
221	1444	17.184809862306	7000
221	1444	17.184809862306	5600
221	1444	17.184809862306	4200
221	1444	17.184809862306	5600
221	1444	17.184809862306	7000
221	1444	17.184809862306	8400
221	1444	17.184809862306	9800
221	1444	17.184809862306	11200
221	1444	17.184809862306	12600
221	1538	17.940585862306	11200
221	1538	17.940585862306	9800
221	1538	17.940585862306	8400
221	1538	17.940585862306	7000
221	1538	17.940585862306	5600
221	1538	17.940585862306	4200
221	1538	17.940585862306	5600
221	1538	17.940585862306	7000
221	1538	17.940585862306	8400
221	1538	17.940585862306	9800
221	1538	17.940585862306	11200
221	1538	17.940585862306	12600
221	1538	17.940585862306	14000
221	1538	17.940585862306	15400
221	1538	17.940585862306	16800
221	1593	18.496873862306	15400
221	1593	18.496873862306	14000
221	1593	18.496873862306	12600
221	1593	18.496873862306	14000
221	1593	18.496873862306	15400
221	1593	18.496873862306	16800
221	1633	18.771241862306	15400
221	1633	18.771241862306	14000
221	1633	18.771241862306	12600
221	1633	18.771241862306	14000
221	1633	18.771241862306	15400
221	1633	18.771241862306	16800
221	1673	19.045609862306	15400
221	1673	19.045609862306	14000
221	1673	19.045609862306	12600
221	1673	19.045609862306	11200
221	1673	19.045609862306	9800
221	1673	19.045609862306	8400
221	1673	19.045609862306	9800
221	1673	19.045609862306	11200
221	1673	19.045609862306	12600
221	1673	19.045609862306	14000
221	1673	19.045609862306	15400
221	1673	19.045609862306	16800
221	1673	19.045609862306	18200
221	1673	19.045609862306	19600
221	1673	19.045609862306	21000
221	1824	19.319977862306	19600
221	1824	19.319977862306	18200
221	1824	19.319977862306	16800
221	1824	19.319977862306	18200
221	1824	19.319977862306	19600
221	1824	19.319977862306	21000
221	1868	19.594345862306	19600
221	1868	19.594345862306	18200
221	1868	19.594345862306	16800
221	1868	19.594345862306	18200
221	1868	19.594345862306	19600
221	1868	19.594345862306	21000
221	1933	20.068201862306	19600
221	1933	20.068201862306	18200
221	1933	20.068201862306	16800
221	1933	20.068201862306	18200
221	1933	20.068201862306	19600
221	1933	20.068201862306	21000
221	1933	20.068201862306	22400
221	1933	20.068201862306	23800
221	1933	20.068201862306	25200
221	1984	20.342569862306	23800
221	1984	20.342569862306	22400
221	1984	20.342569862306	21000
221	1984	20.342569862306	22400
221	1984	20.342569862306	23800
221	1984	20.342569862306	25200
221	2026	20.616937862306	23800
221	2026	20.616937862306	22400
221	2026	20.616937862306	21000
221	2026	20.616937862306	22400
221	2026	20.616937862306	23800
221	2026	20.616937862306	25200
221	2070	20.891305862306	23800
221	2070	20.891305862306	22400
221	2070	20.891305862306	21000
221	2070	20.891305862306	22400
221	2070	20.891305862306	23800
221	2070	20.891305862306	25200
221	2139	21.440041862306	23800
221	2139	21.440041862306	22400
221	2139	21.440041862306	21000
221	2139	21.440041862306	19600
221	2139	21.440041862306	18200
221	2139	21.440041862306	16800
221	2139	21.440041862306	18200
221	2139	21.440041862306	19600
221	2139	21.440041862306	21000
221	2139	21.440041862306	22400
221	2139	21.440041862306	23800
221	2139	21.440041862306	25200
221	2188	21.714409862306	23800
221	2188	21.714409862306	22400
221	2188	21.714409862306	21000
221	2188	21.714409862306	22400
221	2188	21.714409862306	23800
221	2188	21.714409862306	25200
221	2188	21.714409862306	26600
221	2188	21.714409862306	28000
221	2188	21.714409862306	29400
221	2260	22.063657862306	28000
221	2260	22.063657862306	26600
221	2260	22.063657862306	25200
221	2260	22.063657862306	23800
221	2260	22.063657862306	22400
221	2260	22.063657862306	21000
221	2260	22.063657862306	22400
221	2260	22.063657862306	23800
221	2260	22.063657862306	25200
221	2260	22.063657862306	26600
221	2260	22.063657862306	28000
221	2260	22.063657862306	29400
221	2305	22.338537862306	28000
221	2305	22.338537862306	26600
221	2305	22.338537862306	25200
221	2305	22.338537862306	26600
221	2305	22.338537862306	28000
221	2305	22.338537862306	29400
221	2345	22.612905862306	28000
221	2345	22.612905862306	26600
221	2345	22.612905862306	25200
221	2345	22.612905862306	23800
221	2345	22.612905862306	22400
221	2345	22.612905862306	21000
221	2345	22.612905862306	22400
221	2345	22.612905862306	23800
221	2345	22.612905862306	25200
221	2383	22.887273862306	23800
221	2383	22.887273862306	22400
221	2383	22.887273862306	21000
221	2383	22.887273862306	19600
221	2383	22.887273862306	18200
221	2383	22.887273862306	16800
221	2383	22.887273862306	18200
221	2383	22.887273862306	19600
221	2383	22.887273862306	21000
221	2423	23.161641862306	19600
221	2423	23.161641862306	18200
221	2423	23.161641862306	16800
221	2423	23.161641862306	18200
221	2423	23.161641862306	19600
221	2423	23.161641862306	21000
221	2471	23.709865862306	19600
221	2471	23.709865862306	18200
221	2471	23.709865862306	16800
221	2471	23.709865862306	18200
221	2471	23.709865862306	19600
221	2471	23.709865862306	21000
221	2489	26.668146646083	19600
221	2489	26.668146646083	18200
221	2489	26.668146646083	16800
221	2489	26.668146646083	15400
221	2489	26.668146646083	14000
221	2489	26.668146646083	12600
221	2489	26.668146646083	11200
221	2489	26.668146646083	9800
221	2489	26.668146646083	8400
221	2489	26.668146646083	7000
221	2489	26.668146646083	5600
221	2489	26.668146646083	4200
221	2489	26.668146646083	2800
221	2489	26.668146646083	1400
221	2489	26.668146646083	0
221	2489	26.668146646083	1400
221	2489	26.668146646083	2800
221	2489	26.668146646083	4200
221	2489	26.668146646083	5600
221	2489	26.668146646083	7000
221	2489	26.668146646083	8400
221	2558	33.877690389439	7000
221	2558	33.877690389439	5600
221	2558	33.877690389439	4200
221	2558	33.877690389439	2800
221	2558	33.877690389439	1400
221	2558	33.877690389439	0
221	2558	33.877690389439	1400
221	2558	33.877690389439	2800
221	2558	33.877690389439	4200
221	2558	33.877690389439	5600
221	2558	33.877690389439	7000
221	2558	33.877690389439	8400
221	2601	34.435002389439	7000
221	2601	34.435002389439	5600
221	2601	34.435002389439	4200
221	2601	34.435002389439	5600
221	2601	34.435002389439	7000
221	2601	34.435002389439	8400
221	2601	34.435002389439	9800
221	2601	34.435002389439	11200
221	2601	34.435002389439	12600
221	2663	35.265658389439	11200
221	2663	35.265658389439	9800
221	2663	35.265658389439	8400
221	2663	35.265658389439	9800
221	2663	35.265658389439	11200
221	2663	35.265658389439	12600
221	2703	35.821946389439	11200
221	2703	35.821946389439	9800
221	2703	35.821946389439	8400
221	2703	35.821946389439	9800
221	2703	35.821946389439	11200
221	2703	35.821946389439	12600
221	2804	48.854089876151	11200
221	2804	48.854089876151	9800
221	2804	48.854089876151	8400
221	2804	48.854089876151	7000
221	2804	48.854089876151	5600
221	2804	48.854089876151	4200
221	2804	48.854089876151	2800
221	2804	48.854089876151	1400
221	2804	48.854089876151	0
221	2804	48.854089876151	1400
221	2804	48.854089876151	2800
221	2804	48.854089876151	4200
221	2804	48.854089876151	5600
221	2804	48.854089876151	7000
221	2804	48.854089876151	8400
221	2994	49.745289876151	7000
221	2994	49.745289876151	5600
221	2994	49.745289876151	4200
221	2994	49.745289876151	5600
221	2994	49.745289876151	7000
221	2994	49.745289876151	8400
221	2994	49.745289876151	9800
221	2994	49.745289876151	11200
221	2994	49.745289876151	12600
221	3166	78.583464849575	11200
221	3166	78.583464849575	9800
221	3166	78.583464849575	8400
221	3166	78.583464849575	7000
221	3166	78.583464849575	5600
221	3166	78.583464849575	4200
221	3166	78.583464849575	2800
221	3166	78.583464849575	1400
221	3166	78.583464849575	0
221	3166	78.583464849575	1400
221	3166	78.583464849575	2800
221	3166	78.583464849575	4200
221	3166	78.583464849575	5600
221	3166	78.583464849575	7000
221	3166	78.583464849575	8400
221	3277	79.137480849575	7000
221	3277	79.137480849575	5600
221	3277	79.137480849575	4200
221	3277	79.137480849575	5600
221	3277	79.137480849575	7000
221	3277	79.137480849575	8400
221	3277	79.137480849575	9800
221	3277	79.137480849575	11200
221	3277	79.137480849575	12600
221	3331	79.413000849575	11200
221	3331	79.413000849575	9800
221	3331	79.413000849575	8400
221	3331	79.413000849575	9800
221	3331	79.413000849575	11200
221	3331	79.413000849575	12600
221	3331	79.413000849575	14000
221	3331	79.413000849575	15400
221	3331	79.413000849575	16800
221	3388	79.893256849575	15400
221	3388	79.893256849575	14000
221	3388	79.893256849575	12600
221	3388	79.893256849575	14000
221	3388	79.893256849575	15400
221	3388	79.893256849575	16800
221	3388	79.893256849575	18200
221	3388	79.893256849575	19600
221	3388	79.893256849575	21000
221	3464	80.441992849575	19600
221	3464	80.441992849575	18200
221	3464	80.441992849575	16800
221	3464	80.441992849575	15400
221	3464	80.441992849575	14000
221	3464	80.441992849575	12600
221	3464	80.441992849575	14000
221	3464	80.441992849575	15400
221	3464	80.441992849575	16800
221	3464	80.441992849575	18200
221	3464	80.441992849575	19600
221	3464	80.441992849575	21000
221	3464	80.441992849575	22400
[...]
131	6113	110.005923864946	1
131	6115	110.143107864946	0
131	6226	115.054272	1
131	6228	115.056032	0
131	6266	120.001376	1
131	6268	120.002752	0
132	333	4.054272	55
132	340	4.056032	55
132	2762	37.054496	55
132	2827	48.991273876151	4287
132	2842	49.128457876151	4287
132	2862	49.265641876151	4287
132	3110	73.054272	55
132	3125	73.056032	55
132	3189	78.720648849575	4287
132	3204	78.857832849575	4287
132	3224	78.995016849575	4287
132	4987	92.166702774343	4287
132	5024	92.441070774343	4287
132	5078	92.584302774343	4287
132	5803	99.252501221248	4287
132	5820	99.526869221248	4287
132	5878	99.944469221248	4287
132	6091	109.731555864946	4287
132	6101	109.868739864946	4287
132	6113	110.005923864946	4287
132	6226	115.054272	55
132	6266	120.001376	43
133	96	4.050752	55
133	2733	37.050752	55
133	2794	37.061536	55
133	2881	49.269417876151	59
133	2940	49.406601876151	59
133	2986	49.743529876151	55
133	3080	73.050752	55
133	3158	73.063072	55
133	3269	79.135720849575	55
133	3319	79.410856849575	67
133	5042	92.445102774343	63
133	5116	92.863214774343	71
133	5861	99.805269221248	63
133	6125	110.210467864946	71
133	6210	115.050752	55
134	5097	92.719214774343	59
136	333	4.054272	48
136	340	4.056032	48
136	2762	37.054496	48
136	2827	48.991273876151	4280
136	2842	49.128457876151	4280
136	2862	49.265641876151	4280
136	3110	73.054272	48
136	3125	73.056032	48
136	3189	78.720648849575	4280
136	3204	78.857832849575	4280
136	3224	78.995016849575	4280
136	4987	92.166702774343	4280
136	5024	92.441070774343	4280
136	5078	92.584302774343	4280
136	5803	99.252501221248	4280
136	5820	99.526869221248	4280
136	5878	99.944469221248	4280
136	6091	109.731555864946	4280
136	6101	109.868739864946	4280
136	6113	110.005923864946	4280
136	6226	115.054272	48
136	6266	120.001376	36
137	96	4.050752	48
137	2733	37.050752	48
137	2794	37.061536	48
137	2881	49.269417876151	52
137	2940	49.406601876151	52
137	2986	49.743529876151	48
137	3080	73.050752	48
137	3158	73.063072	48
137	3269	79.135720849575	48
137	3319	79.410856849575	60
137	5042	92.445102774343	56
137	5116	92.863214774343	64
137	5861	99.805269221248	56
137	6125	110.210467864946	64
137	6210	115.050752	48
143	94	4.048992	48
143	2730	37.048992	48
143	2788	37.059776	48
143	2879	49.267529876151	52
143	2933	49.404713876151	52
143	2984	49.741769876151	48
143	3077	73.048992	48
143	3156	73.061312	48
143	3267	79.133960849575	48
143	3317	79.408712849575	60
143	5040	92.443086774343	56
143	5095	92.717326774343	52
143	5114	92.860942774343	64
143	5859	99.803253221248	56
143	6123	110.208195864946	64
143	6208	115.048992	48
145	94	4.048992	0
145	2730	37.048992	0
145	2788	37.059776	0
145	2879	49.267529876151	0
145	2933	49.404713876151	0
145	2984	49.741769876151	0
145	3077	73.048992	0
145	3156	73.061312	0
145	3267	79.133960849575	0
145	3317	79.408712849575	0
145	5040	92.443086774343	0
145	5095	92.717326774343	0
145	5114	92.860942774343	0
145	5859	99.803253221248	0
145	6123	110.208195864946	0
145	6208	115.048992	0
146	0	0	0
147	0	0	0
147	95	4.048992	1
147	97	4.050752	0
147	2732	37.048992	1
147	2734	37.050752	0
147	2789	37.059776	1
147	2795	37.061536	0
147	2880	49.267529876151	1
147	2882	49.269417876151	0
147	2934	49.404713876151	1
147	2941	49.406601876151	0
147	2985	49.741769876151	1
147	2987	49.743529876151	0
147	3079	73.048992	1
147	3081	73.050752	0
147	3157	73.061312	1
147	3159	73.063072	0
147	3268	79.133960849575	1
147	3270	79.135720849575	0
147	3318	79.408712849575	1
147	3320	79.410856849575	0
147	5041	92.443086774343	1
147	5043	92.445102774343	0
147	5096	92.717326774343	1
147	5098	92.719214774343	0
147	5115	92.860942774343	1
147	5117	92.863214774343	0
147	5860	99.803253221248	1
147	5862	99.805269221248	0
147	6124	110.208195864946	1
147	6126	110.210467864946	0
147	6209	115.048992	1
147	6211	115.050752	0
148	95	4.048992	55
148	2732	37.048992	55
148	2789	37.059776	55
148	2880	49.267529876151	59
148	2934	49.404713876151	59
148	2985	49.741769876151	55
148	3079	73.048992	55
148	3157	73.061312	55
148	3268	79.133960849575	55
148	3318	79.408712849575	67
148	5041	92.443086774343	63
148	5096	92.717326774343	59
148	5115	92.860942774343	71
148	5860	99.803253221248	63
148	6124	110.208195864946	71
148	6209	115.048992	55
149	341	4.057792	55
149	2768	37.056256	55
149	2833	49.128457876151	4287
149	2848	49.265641876151	4287
149	2892	49.402825876151	4287
149	3115	73.056032	55
149	3128	73.057792	55
149	3195	78.857832849575	4287
149	3210	78.995016849575	4287
149	3243	79.132200849575	4287
149	5005	92.303886774343	4287
149	5069	92.578254774343	4287
149	5099	92.721486774343	4287
149	5806	99.389685221248	4287
149	5838	99.664053221248	4287
149	5879	100.081653221248	4287
149	6094	109.868739864946	4287
149	6227	115.056032	55
149	6267	120.002752	43
150	336	4.056032	55
150	6105	110.005923864946	4287
150	6114	110.143107864946	4287
152	95	4.048992	48
152	2732	37.048992	48
152	2789	37.059776	48
152	2880	49.267529876151	52
152	2934	49.404713876151	52
152	2985	49.741769876151	48
152	3079	73.048992	48
152	3157	73.061312	48
152	3268	79.133960849575	48
152	3318	79.408712849575	60
152	5041	92.443086774343	56
152	5096	92.717326774343	52
152	5115	92.860942774343	64
152	5860	99.803253221248	56
152	6124	110.208195864946	64
152	6209	115.048992	48
153	341	4.057792	48
153	2768	37.056256	48
153	2833	49.128457876151	4280
153	2848	49.265641876151	4280
153	2892	49.402825876151	4280
153	3115	73.056032	48
153	3128	73.057792	48
153	3195	78.857832849575	4280
153	3210	78.995016849575	4280
153	3243	79.132200849575	4280
153	5005	92.303886774343	4280
153	5069	92.578254774343	4280
153	5099	92.721486774343	4280
153	5806	99.389685221248	4280
153	5838	99.664053221248	4280
153	5879	100.081653221248	4280
153	6094	109.868739864946	4280
153	6227	115.056032	48
153	6267	120.002752	36
154	344	4.057792	48
154	2771	37.056256	48
154	2841	49.128457876151	4280
154	2859	49.265641876151	4280
154	2900	49.402825876151	4280
154	3123	73.056032	48
154	3134	73.057792	48
154	3203	78.857832849575	4280
154	3221	78.995016849575	4280
154	3250	79.132200849575	4280
154	5009	92.303886774343	4280
154	5072	92.578254774343	4280
154	5102	92.721486774343	4280
154	5810	99.389685221248	4280
154	5841	99.664053221248	4280
154	5882	100.081653221248	4280
154	6100	109.868739864946	4280
154	6230	115.056032	48
154	6270	120.002752	36
156	344	4.057792	0
156	2771	37.056256	0
156	2841	49.128457876151	0
156	2859	49.265641876151	0
156	2900	49.402825876151	0
156	3123	73.056032	0
156	3134	73.057792	0
156	3203	78.857832849575	0
156	3221	78.995016849575	0
156	3250	79.132200849575	0
156	5009	92.303886774343	0
156	5072	92.578254774343	0
156	5102	92.721486774343	0
156	5810	99.389685221248	0
156	5841	99.664053221248	0
156	5882	100.081653221248	0
156	6100	109.868739864946	0
156	6230	115.056032	0
156	6270	120.002752	0
157	0	0	0
158	0	0	0
158	345	4.057792	1
158	347	4.059552	0
158	2772	37.056256	1
158	2774	37.058016	0
158	2843	49.128457876151	1
158	2851	49.265641876151	0
158	2863	49.265641876151	1
158	2895	49.402825876151	0
158	2906	49.402825876151	1
158	2957	49.540009876151	0
158	3126	73.056032	1
158	3131	73.057792	0
158	3136	73.057792	1
158	3140	73.059552	0
158	3205	78.857832849575	1
158	3213	78.995016849575	0
158	3225	78.995016849575	1
158	3246	79.132200849575	0
158	3255	79.132200849575	1
158	3286	79.269384849575	0
158	5010	92.303886774343	1
158	5019	92.441070774343	0
158	5073	92.578254774343	1
158	5080	92.715438774343	0
158	5103	92.721486774343	1
158	5105	92.858670774343	0
158	5811	99.389685221248	1
158	5815	99.526869221248	0
158	5842	99.664053221248	1
158	5844	99.801237221248	0
158	5883	100.081653221248	1
158	5885	100.218837221248	0
158	6102	109.868739864946	1
158	6108	110.005923864946	0
158	6231	115.056032	1
158	6233	115.057792	0
158	6271	120.002752	1
158	6273	120.004128	0
159	345	4.057792	55
159	2772	37.056256	55
159	2843	49.128457876151	4287
159	2863	49.265641876151	4287
159	2906	49.402825876151	4287
159	3126	73.056032	55
159	3136	73.057792	55
159	3205	78.857832849575	4287
159	3225	78.995016849575	4287
159	3255	79.132200849575	4287
159	5010	92.303886774343	4287
159	5073	92.578254774343	4287
159	5103	92.721486774343	4287
159	5811	99.389685221248	4287
159	5842	99.664053221248	4287
159	5883	100.081653221248	4287
159	6102	109.868739864946	4287
159	6231	115.056032	55
159	6271	120.002752	43
160	91	4.048992	55
160	2725	37.048992	55
160	2785	37.059776	55
160	2876	49.267529876151	59
160	2930	49.404713876151	59
160	2981	49.741769876151	55
160	3072	73.048992	55
160	3151	73.061312	55
160	3264	79.133960849575	55
160	3314	79.408712849575	67
160	5037	92.443086774343	63
160	5092	92.717326774343	59
160	5111	92.860942774343	71
160	5856	99.803253221248	63
160	6120	110.208195864946	71
160	6205	115.048992	55
161	5836	99.528757221248	59
161	5897	100.220725221248	59
163	345	4.057792	48
163	2772	37.056256	48
163	2843	49.128457876151	4280
163	2863	49.265641876151	4280
163	2906	49.402825876151	4280
163	3126	73.056032	48
163	3136	73.057792	48
163	3205	78.857832849575	4280
163	3225	78.995016849575	4280
163	3255	79.132200849575	4280
163	5010	92.303886774343	4280
163	5073	92.578254774343	4280
163	5103	92.721486774343	4280
163	5811	99.389685221248	4280
163	5842	99.664053221248	4280
163	5883	100.081653221248	4280
163	6102	109.868739864946	4280
163	6231	115.056032	48
163	6271	120.002752	36
164	91	4.048992	48
164	2725	37.048992	48
164	2785	37.059776	48
164	2876	49.267529876151	52
164	2930	49.404713876151	52
164	2981	49.741769876151	48
164	3072	73.048992	48
164	3151	73.061312	48
164	3264	79.133960849575	48
164	3314	79.408712849575	60
164	5037	92.443086774343	56
164	5092	92.717326774343	52
164	5111	92.860942774343	64
164	5856	99.803253221248	56
164	6120	110.208195864946	64
164	6205	115.048992	48
343	545	5.525248	1400
343	546	5.525248	2800
343	547	5.525248	4200
343	548	5.525248	5600
343	549	5.525248	7000
343	550	5.525248	8400
343	551	5.525248	9800
343	552	5.525248	11200
343	553	5.525248	12600
343	554	5.525248	14000
343	555	5.525248	15400
343	556	5.525248	16800
343	557	5.525248	18200
343	604	5.846176	19600
343	605	5.846176	21000
343	606	5.846176	22400
343	648	6.120544	23800
343	649	6.120544	25200
343	650	6.120544	26600
343	697	6.394912	28000
343	698	6.394912	29400
343	699	6.394912	30800
343	731	6.66928	32200
343	732	6.66928	33600
343	733	6.66928	35000
343	773	6.943648	36400
343	774	6.943648	37800
343	775	6.943648	39200
343	1073	9.687328	40600
343	1074	9.687328	42000
343	1075	9.687328	43400
343	1076	9.687328	44800
343	1077	9.687328	46200
343	1078	9.687328	47600
343	1079	9.687328	49000
343	1080	9.687328	50400
343	1081	9.687328	51800
343	1082	9.687328	53200
343	1083	9.687328	54600
343	1084	9.687328	56000
343	1085	9.687328	57400
343	1086	9.687328	58800
343	1087	9.687328	60200
343	1088	9.687328	61600
343	1089	9.687328	63000
343	1090	9.687328	64400
343	1091	9.687328	65800
343	1092	9.687328	67200
343	1093	9.687328	68600
343	1412	17.177257862306	70000
343	1413	17.177257862306	71400
343	1414	17.177257862306	72800
343	1415	17.177257862306	74200
343	1416	17.177257862306	75600
343	1417	17.177257862306	77000
343	1418	17.177257862306	78400
343	1419	17.177257862306	79800
343	1420	17.177257862306	81200
343	1421	17.177257862306	82600
343	1422	17.177257862306	84000
343	1423	17.177257862306	85400
343	1424	17.177257862306	86800
343	1425	17.177257862306	88200
343	1426	17.177257862306	89600
343	1427	17.177257862306	91000
343	1428	17.177257862306	92400
343	1429	17.177257862306	93800
343	1471	17.451625862306	95200
343	1472	17.451625862306	96600
343	1473	17.451625862306	98000
343	1474	17.451625862306	99400
343	1475	17.451625862306	100800
343	1476	17.451625862306	102200
343	1477	17.451625862306	103600
343	1478	17.451625862306	105000
343	1479	17.451625862306	106400
343	1516	17.733545862306	107800
343	1517	17.733545862306	109200
343	1518	17.733545862306	110600
343	1892	19.861161862306	112000
343	1893	19.861161862306	113400
343	1894	19.861161862306	114800
343	1895	19.861161862306	116200
343	1896	19.861161862306	117600
343	1897	19.861161862306	119000
343	1898	19.861161862306	120400
343	1899	19.861161862306	121800
343	1900	19.861161862306	123200
343	1901	19.861161862306	124600
343	1902	19.861161862306	126000
343	1903	19.861161862306	127400
343	1904	19.861161862306	128800
343	1905	19.861161862306	130200
343	1906	19.861161862306	131600
343	1907	19.861161862306	133000
343	1908	19.861161862306	134400
343	1909	19.861161862306	135800
343	1949	20.135529862306	137200
343	1950	20.135529862306	138600
343	1951	20.135529862306	140000
343	1998	20.409897862306	141400
343	1999	20.409897862306	142800
343	2000	20.409897862306	144200
343	2040	20.684265862306	145600
343	2041	20.684265862306	147000
343	2042	20.684265862306	148400
343	2084	20.958633862306	149800
343	2085	20.958633862306	151200
343	2086	20.958633862306	152600
343	2113	21.233001862306	154000
343	2114	21.233001862306	155400
343	2115	21.233001862306	156800
343	2155	21.507369862306	158200
343	2156	21.507369862306	159600
343	2157	21.507369862306	161000
343	2521	27.216882646083	162400
343	2522	27.216882646083	163800
343	2523	27.216882646083	165200
343	2524	27.216882646083	166600
343	2525	27.216882646083	168000
343	2526	27.216882646083	169400
343	2527	27.216882646083	170800
343	2528	27.216882646083	172200
343	2529	27.216882646083	173600
343	2530	27.216882646083	175000
343	2531	27.216882646083	176400
343	2532	27.216882646083	177800
343	2533	27.216882646083	179200
343	2534	27.216882646083	180600
343	2535	27.216882646083	182000
343	2536	27.216882646083	183400
343	2537	27.216882646083	184800
343	2538	27.216882646083	186200
343	2539	27.216882646083	187600
343	2540	27.216882646083	189000
343	2541	27.216882646083	190400
343	2542	27.216882646083	191800
343	2543	27.216882646083	193200
343	2544	27.216882646083	194600
343	2872	49.265641876151	196000
343	2873	49.265641876151	197400
343	2874	49.265641876151	198800
343	2919	49.402825876151	200200
343	2920	49.402825876151	201600
343	2921	49.402825876151	203000
343	2922	49.402825876151	204400
343	2923	49.402825876151	205800
343	2924	49.402825876151	207200
343	2925	49.402825876151	208600
343	2926	49.402825876151	210000
343	2927	49.402825876151	211400
343	2969	49.540009876151	212800
343	2970	49.540009876151	214200
343	2971	49.540009876151	215600
343	2972	49.540009876151	217000
343	2973	49.540009876151	218400
343	2974	49.540009876151	219800
343	3232	78.995016849575	221200
343	3233	78.995016849575	222600
343	3234	78.995016849575	224000
343	3235	78.995016849575	225400
343	3236	78.995016849575	226800
343	3237	78.995016849575	228200
343	3238	78.995016849575	229600
343	3239	78.995016849575	231000
343	3240	78.995016849575	232400
343	3260	79.132200849575	233800
343	3261	79.132200849575	235200
343	3262	79.132200849575	236600
343	3310	79.406568849575	238000
343	3311	79.406568849575	239400
343	3312	79.406568849575	240800
343	3358	79.686216849575	242200
343	3359	79.686216849575	243600
343	3360	79.686216849575	245000
343	3404	79.960584849575	246400
343	3405	79.960584849575	247800
343	3406	79.960584849575	249200
343	3438	80.234952849575	250600
343	3439	80.234952849575	252000
343	3440	80.234952849575	253400
343	3482	80.509320849575	254800
343	3483	80.509320849575	256200
343	3484	80.509320849575	257600
343	3633	80.783688849575	259000
343	3634	80.783688849575	260400
343	3635	80.783688849575	261800
343	3682	81.058056849575	263200
343	3683	81.058056849575	264600
343	3684	81.058056849575	266000
343	3726	81.332424849575	267400
343	3727	81.332424849575	268800
343	3728	81.332424849575	270200
343	3771	81.606792849575	271600
343	3772	81.606792849575	273000
343	3773	81.606792849575	274400
343	3810	81.881160849575	275800
343	3811	81.881160849575	277200
343	3812	81.881160849575	278600
343	3840	82.155528849575	280000
343	3841	82.155528849575	281400
343	3842	82.155528849575	282800
343	3865	82.429896849575	284200
343	3866	82.429896849575	285600
343	3867	82.429896849575	287000
343	3900	82.704264849575	288400
343	3901	82.704264849575	289800
343	3902	82.704264849575	291200
343	3945	82.978632849575	292600
343	3946	82.978632849575	294000
343	3947	82.978632849575	295400
343	4255	85.662536849575	296800
343	4256	85.662536849575	298200
343	4257	85.662536849575	299600
343	4258	85.662536849575	301000
343	4259	85.662536849575	302400
343	4260	85.662536849575	303800
343	4304	85.936904849575	305200
343	4305	85.936904849575	306600
343	4306	85.936904849575	308000
343	4307	85.936904849575	309400
343	4308	85.936904849575	310800
343	4309	85.936904849575	312200
343	4338	86.211272849575	313600
343	4339	86.211272849575	315000
343	4340	86.211272849575	316400
343	4341	86.211272849575	317800
343	4342	86.211272849575	319200
343	4343	86.211272849575	320600
343	4344	86.211272849575	322000
343	4345	86.211272849575	323400
343	4346	86.211272849575	324800
343	4347	86.211272849575	326200
343	4348	86.211272849575	327600
343	4349	86.211272849575	329000
343	4350	86.211272849575	330400
343	4351	86.211272849575	331800
343	4352	86.211272849575	333200
343	4394	86.485640849575	334600
343	4395	86.485640849575	336000
343	4396	86.485640849575	337400
343	4443	86.760008849575	338800
343	4444	86.760008849575	340200
343	4445	86.760008849575	341600
343	4490	87.034376849575	343000
343	4491	87.034376849575	344400
343	4492	87.034376849575	345800
343	4534	87.308744849575	347200
343	4535	87.308744849575	348600
343	4536	87.308744849575	350000
343	4578	87.583112849575	351400
343	4579	87.583112849575	352800
343	4580	87.583112849575	354200
343	5033	92.441070774343	355600
343	5034	92.441070774343	357000
343	5035	92.441070774343	358400
343	5417	95.075534774343	359800
343	5418	95.075534774343	361200
343	5420	95.075534774343	362600
343	5421	95.075534774343	364000
343	5422	95.075534774343	365400
343	5423	95.075534774343	366800
343	5424	95.075534774343	368200
343	5425	95.075534774343	369600
343	5426	95.075534774343	371000
343	5427	95.075534774343	372400
343	5428	95.075534774343	373800
343	5430	95.075534774343	375200
343	5431	95.075534774343	376600
343	5432	95.075534774343	378000
343	5433	95.075534774343	379400
343	5434	95.075534774343	380800
343	5435	95.075534774343	382200
343	5436	95.075534774343	383600
343	5437	95.075534774343	385000
343	5438	95.075534774343	386400
343	5439	95.075534774343	387800
343	5440	95.075534774343	389200
343	5441	95.075534774343	390600
343	5442	95.075534774343	392000
343	5443	95.075534774343	393400
343	5444	95.075534774343	394800
343	5445	95.075534774343	396200
343	5446	95.075534774343	397600
343	5447	95.075534774343	399000
343	5448	95.075534774343	400400
343	5449	95.075534774343	401800
343	5450	95.075534774343	403200
343	5451	95.075534774343	404600
343	5452	95.075534774343	406000
343	5453	95.075534774343	407400
343	5454	95.075534774343	408800
343	5455	95.075534774343	410200
343	5456	95.075534774343	411600
343	5457	95.075534774343	413000
343	5458	95.075534774343	414400
343	5459	95.075534774343	415800
343	5460	95.075534774343	417200
343	5461	95.075534774343	418600
343	5462	95.075534774343	420000
343	5463	95.075534774343	421400
343	5464	95.075534774343	422800
343	5465	95.075534774343	424200
343	5659	96.462478774343	425600
343	5660	96.462478774343	427000
343	5661	96.462478774343	428400
343	5688	96.509038774343	429800
343	5689	96.509038774343	431200
343	5690	96.509038774343	432600
343	5691	96.509038774343	434000
343	5692	96.509038774343	435400
343	5693	96.509038774343	436800
343	5694	96.509038774343	438200
343	5829	99.526869221248	439600
343	5830	99.526869221248	441000
343	5831	99.526869221248	442400
343	5832	99.526869221248	443800
343	5833	99.526869221248	445200
343	5834	99.526869221248	446600
343	5965	104.356021221248	448000
343	5966	104.356021221248	449400
343	5967	104.356021221248	450800
343	5968	104.356021221248	452200
343	5969	104.356021221248	453600
343	5970	104.356021221248	455000
343	5971	104.356021221248	456400
343	5972	104.356021221248	457800
343	5973	104.356021221248	459200
343	5974	104.356021221248	460600
343	5975	104.356021221248	462000
343	5976	104.356021221248	463400
343	5977	104.356021221248	464800
343	5978	104.356021221248	466200
343	5979	104.356021221248	467600
343	6038	104.904757221248	469000
343	6039	104.904757221248	470400
343	6040	104.904757221248	471800
