version 2
run General-0-20180703-21:30:18-4373
attr configname General
attr datetime 20180703-21:30:18
attr experiment General
attr inifile omnetpp.ini
attr iterationvars ""
attr iterationvars2 $repetition=0
attr measurement ""
attr network multi
attr processid 4373
attr repetition 0
attr replication #0
attr resultdir results
attr runnumber 0
attr seedset 0
param **.cli*.numTcpApps 0
param **.cli*.sctpApp[*].typename "\"SCTPClient\""
param **.cli*.tcpApp[*].typename "\"TCPBasicClientApp\""
param **.cli1.numSctpApps 1
param **.cli1.sctpApp[0].connectAddress "\"10.1.3.1\""
param **.cli1.sctpApp[0].connectPort 6666
param **.cli1.sctpApp[0].localAddress "\"10.1.1.1 10.2.1.1\""
param **.cli1.sctpApp[0].numRequestsPerSession 100000000
param **.cli1.sctpApp[0].outboundStreams 1
param **.cli1.sctpApp[0].primaryPath "\"10.1.3.1\""
param **.cli1.sctpApp[0].queueSize 100
param **.cli1.sctpApp[0].requestLength 1400
param **.cli1.sctpApp[0].startTime 1s
param **.cli1.sctpApp[0].stopTime 120s
param **.numUdpApps 0
param **.ppp[*].queue.frameCapacity 20
param **.ppp[*].queueType "\"DropTailQueue\""
param **.srv1.numSctpApps 1
param **.srv1.numTcpApps 0
param **.srv1.sctpApp[*].typename "\"SCTPServer\""
param **.srv1.sctpApp[0].bytesToPush 0
param **.srv1.sctpApp[0].localAddress "\"10.1.3.1 10.2.3.1\""
param **.srv1.sctpApp[0].localPort 6666
param **.srv1.sctpApp[0].numPacketsToReceivePerClient 0
param **.srv1.sctpApp[0].numPacketsToSendPerClient 0
param **.srv1.sctpApp[0].outboundStreams 1
param **.srv1.sctpApp[0].queueSize 0
param **.srv1.sctpApp[0].readingInterval 0
param **.srv1.tcpApp[*].typename "\"TCPSinkApp\""
param **.udpApp[*].typename "\"UDPApp\""
param multi.testTimeout 0s
param multi.testing false

scalar multi.cli1.sctpApp[0] 	ums 	1400
scalar multi.cli1.sctp 	"Number of Fast Retransmissions 1:10.1.3.1" 	41
scalar multi.cli1.sctp 	"Number of Timer-Based Retransmissions 1:10.1.3.1" 	63
scalar multi.cli1.sctp 	"Number of Heartbeats Sent 1:10.1.3.1" 	0
scalar multi.cli1.sctp 	"Number of Heartbeats Received 1:10.1.3.1" 	3
scalar multi.cli1.sctp 	"Number of Heartbeat ACKs Sent 1:10.1.3.1" 	3
scalar multi.cli1.sctp 	"Number of Heartbeat ACKs Received 1:10.1.3.1" 	0
scalar multi.cli1.sctp 	"Number of Duplicates 1:10.1.3.1" 	0
scalar multi.cli1.sctp 	"Number of Bytes received from 1:10.1.3.1" 	0
scalar multi.cli1.sctp 	"Number of Fast Retransmissions 1:10.2.3.1" 	0
scalar multi.cli1.sctp 	"Number of Timer-Based Retransmissions 1:10.2.3.1" 	60
scalar multi.cli1.sctp 	"Number of Heartbeats Sent 1:10.2.3.1" 	3
scalar multi.cli1.sctp 	"Number of Heartbeats Received 1:10.2.3.1" 	3
scalar multi.cli1.sctp 	"Number of Heartbeat ACKs Sent 1:10.2.3.1" 	3
scalar multi.cli1.sctp 	"Number of Heartbeat ACKs Received 1:10.2.3.1" 	1
scalar multi.cli1.sctp 	"Number of Duplicates 1:10.2.3.1" 	0
scalar multi.cli1.sctp 	"Number of Bytes received from 1:10.2.3.1" 	0
scalar multi.cli1.sctp 	"Bytes received on stream 0 of assoc 1" 	0
scalar multi.cli1.sctp 	"Blocking TSNs Moved" 	0
scalar multi.srv1.sctp 	"Number of Fast Retransmissions 3:10.1.1.1" 	0
scalar multi.srv1.sctp 	"Number of Timer-Based Retransmissions 3:10.1.1.1" 	0
scalar multi.srv1.sctp 	"Number of Heartbeats Sent 3:10.1.1.1" 	3
scalar multi.srv1.sctp 	"Number of Heartbeats Received 3:10.1.1.1" 	0
scalar multi.srv1.sctp 	"Number of Heartbeat ACKs Sent 3:10.1.1.1" 	0
scalar multi.srv1.sctp 	"Number of Heartbeat ACKs Received 3:10.1.1.1" 	2
scalar multi.srv1.sctp 	"Number of Duplicates 3:10.1.1.1" 	3
scalar multi.srv1.sctp 	"Number of Bytes received from 3:10.1.1.1" 	452200
scalar multi.srv1.sctp 	"Number of Fast Retransmissions 3:10.2.1.1" 	0
scalar multi.srv1.sctp 	"Number of Timer-Based Retransmissions 3:10.2.1.1" 	0
scalar multi.srv1.sctp 	"Number of Heartbeats Sent 3:10.2.1.1" 	4
scalar multi.srv1.sctp 	"Number of Heartbeats Received 3:10.2.1.1" 	2
scalar multi.srv1.sctp 	"Number of Heartbeat ACKs Sent 3:10.2.1.1" 	2
scalar multi.srv1.sctp 	"Number of Heartbeat ACKs Received 3:10.2.1.1" 	2
scalar multi.srv1.sctp 	"Number of Duplicates 3:10.2.1.1" 	9
scalar multi.srv1.sctp 	"Number of Bytes received from 3:10.2.1.1" 	50400
scalar multi.srv1.sctp 	"Bytes received on stream 0 of assoc 3" 	4200
scalar multi.srv1.sctp 	"Blocking TSNs Moved" 	0
scalar multi.cli1.networkLayer.arp 	failedARPResolution:count 	0
attr title  "ARP failed resolutions, count"
scalar multi.cli1.networkLayer.arp 	completedARPResolution:count 	0
attr title  "ARP completed resolutions, count"
scalar multi.cli1.networkLayer.arp 	initiatedARPResolution:count 	0
attr title  "ARP initiated resolutions, count"
scalar multi.cli1.networkLayer.arp 	sentReply:count 	0
attr title  "ARP replies sent, count"
scalar multi.cli1.networkLayer.arp 	sentReq:count 	0
attr title  "ARP request sent, count"
scalar multi.cli1.lo0.lo 	droppedPkBitError:count 	0
attr interpolationmode  none
attr source  dropPkBitError
attr title  "packets dropped/bit error, count"
scalar multi.cli1.lo0.lo 	droppedPkBitError:sum(packetBytes) 	0
attr interpolationmode  none
attr source  dropPkBitError
attr title  "packets dropped/bit error, sum(packetBytes)"
scalar multi.cli1.lo0.lo 	rcvdPkFromHL:count 	0
attr interpolationmode  none
attr source  packetReceivedFromUpper
attr title  "packets received from higher layer, count"
scalar multi.cli1.lo0.lo 	rcvdPkFromHL:sum(packetBytes) 	0
attr interpolationmode  none
attr source  packetReceivedFromUpper
attr title  "packets received from higher layer, sum(packetBytes)"
scalar multi.cli1.lo0.lo 	passedUpPk:count 	0
attr interpolationmode  none
attr source  packetSentToUpper
attr title  "packets passed to higher layer, count"
scalar multi.cli1.lo0.lo 	passedUpPk:sum(packetBytes) 	0
attr interpolationmode  none
attr source  packetSentToUpper
attr title  "packets passed to higher layer, sum(packetBytes)"
statistic multi.cli1.ppp[0].queue 	queueingTime:histogram
field count 158
field mean 0.080084184944608
field stddev 0.10399379153499
field sum 12.653301221248
field sqrsum 2.7112385775804
field min 0
field max 0.411552
attr interpolationmode  none
attr title  "queueing time, histogram"
bin	-INF	0
bin	-0.205776	0
bin	-0.1783392	0
bin	-0.1509024	0
bin	-0.1234656	0
bin	-0.0960288	0
bin	-0.068592	0
bin	-0.0411552	0
bin	-0.0137184	87
bin	0.0137184	0
bin	0.0411552	3
bin	0.068592	1
bin	0.0960288	0
bin	0.1234656	44
bin	0.1509024	1
bin	0.1783392	3
bin	0.205776	0
bin	0.2332128	0
bin	0.2606496	15
bin	0.2880864	0
bin	0.3155232	1
bin	0.34296	0
bin	0.3703968	0
bin	0.3978336	3
bin	0.4252704	0
bin	0.4527072	0
bin	0.480144	0
bin	0.5075808	0
bin	0.5350176	0
bin	0.5624544	0
bin	0.5898912	0
bin	0.617328	0
scalar multi.cli1.ppp[0].queue 	dropPk:count 	0
attr interpolationmode  none
attr source  dropPkByQueue
attr title  "dropped packets, count"
scalar multi.cli1.ppp[0].queue 	dropPk:sum(packetBytes) 	0
attr interpolationmode  none
attr source  dropPkByQueue
attr title  "dropped packets, sum(packetBytes)"
scalar multi.cli1.ppp[0].queue 	queueLength:max 	3
attr interpolationmode  sample-hold
attr title  "queue length, max"
scalar multi.cli1.ppp[0].queue 	queueLength:timeavg 	0.10495940434155
attr interpolationmode  sample-hold
attr title  "queue length, timeavg"
scalar multi.cli1.ppp[0].queue 	rcvdPk:count 	158
attr interpolationmode  none
attr title  "received packets, count"
scalar multi.cli1.ppp[0].queue 	rcvdPk:sum(packetBytes) 	642516
attr interpolationmode  none
attr title  "received packets, sum(packetBytes)"
scalar multi.cli1.ppp[0].ppp 	txState:timeavg 	0.17084346431946
attr interpolationmode  sample-hold
attr title  "tx state, timeavg"
scalar multi.cli1.ppp[0].ppp 	droppedPkIfaceDown:count 	0
attr interpolationmode  none
attr source  dropPkIfaceDown
attr title  "packets dropped/interface down, count"
scalar multi.cli1.ppp[0].ppp 	droppedPkIfaceDown:sum(packetBytes) 	0
attr interpolationmode  none
attr source  dropPkIfaceDown
attr title  "packets dropped/interface down, sum(packetBytes)"
scalar multi.cli1.ppp[0].ppp 	droppedPkBitError:count 	10
attr interpolationmode  none
attr source  dropPkBitError
attr title  "packets dropped/bit error, count"
scalar multi.cli1.ppp[0].ppp 	droppedPkBitError:sum(packetBytes) 	582
attr interpolationmode  none
attr source  dropPkBitError
attr title  "packets dropped/bit error, sum(packetBytes)"
scalar multi.cli1.ppp[0].ppp 	rxPkOk:count 	81
attr interpolationmode  none
attr source  rxPkOk
attr title  "packets received OK, count"
scalar multi.cli1.ppp[0].ppp 	rxPkOk:sum(packetBytes) 	4839
attr interpolationmode  none
attr source  rxPkOk
attr title  "packets received OK, sum(packetBytes)"
scalar multi.cli1.ppp[0].ppp 	txPk:count 	158
attr interpolationmode  none
attr source  packetSentToLower
attr title  "packets transmitted, count"
scalar multi.cli1.ppp[0].ppp 	txPk:sum(packetBytes) 	643622
attr interpolationmode  none
attr source  packetSentToLower
attr title  "packets transmitted, sum(packetBytes)"
scalar multi.cli1.ppp[0].ppp 	rcvdPkFromHL:count 	158
attr interpolationmode  none
attr source  packetReceivedFromUpper
attr title  "packets received from higher layer, count"
scalar multi.cli1.ppp[0].ppp 	rcvdPkFromHL:sum(packetBytes) 	642516
attr interpolationmode  none
attr source  packetReceivedFromUpper
attr title  "packets received from higher layer, sum(packetBytes)"
scalar multi.cli1.ppp[0].ppp 	passedUpPk:count 	81
attr interpolationmode  none
attr source  packetSentToUpper
attr title  "packets passed to higher layer, count"
scalar multi.cli1.ppp[0].ppp 	passedUpPk:sum(packetBytes) 	4272
attr interpolationmode  none
attr source  packetSentToUpper
attr title  "packets passed to higher layer, sum(packetBytes)"
statistic multi.cli1.ppp[1].queue 	queueingTime:histogram
field count 24
field mean 0.085868
field stddev 0.11297006968296
field sum 2.060832
field sqrsum 0.470490964992
field min 0
field max 0.274368
attr interpolationmode  none
attr title  "queueing time, histogram"
bin	-INF	0
bin	-0.137184	0
bin	-0.1188928	0
bin	-0.1006016	0
bin	-0.0823104	0
bin	-0.0640192	0
bin	-0.045728	0
bin	-0.0274368	0
bin	-0.0091456	14
bin	0.0091456	0
bin	0.0274368	0
bin	0.045728	0
bin	0.0640192	0
bin	0.0823104	0
bin	0.1006016	0
bin	0.1188928	0
bin	0.137184	5
bin	0.1554752	0
bin	0.1737664	0
bin	0.1920576	0
bin	0.2103488	0
bin	0.22864	0
bin	0.2469312	0
bin	0.2652224	5
bin	0.2835136	0
bin	0.3018048	0
bin	0.320096	0
bin	0.3383872	0
bin	0.3566784	0
bin	0.3749696	0
bin	0.3932608	0
bin	0.411552	0
scalar multi.cli1.ppp[1].queue 	dropPk:count 	0
attr interpolationmode  none
attr source  dropPkByQueue
attr title  "dropped packets, count"
scalar multi.cli1.ppp[1].queue 	dropPk:sum(packetBytes) 	0
attr interpolationmode  none
attr source  dropPkByQueue
attr title  "dropped packets, sum(packetBytes)"
scalar multi.cli1.ppp[1].queue 	queueLength:max 	2
attr interpolationmode  sample-hold
attr title  "queue length, max"
scalar multi.cli1.ppp[1].queue 	queueLength:timeavg 	0.01709464553051
attr interpolationmode  sample-hold
attr title  "queue length, timeavg"
scalar multi.cli1.ppp[1].queue 	rcvdPk:count 	24
attr interpolationmode  none
attr title  "received packets, count"
scalar multi.cli1.ppp[1].queue 	rcvdPk:sum(packetBytes) 	73084
attr interpolationmode  none
attr title  "received packets, sum(packetBytes)"
scalar multi.cli1.ppp[1].ppp 	txState:timeavg 	0.019444061030122
attr interpolationmode  sample-hold
attr title  "tx state, timeavg"
scalar multi.cli1.ppp[1].ppp 	droppedPkIfaceDown:count 	0
attr interpolationmode  none
attr source  dropPkIfaceDown
attr title  "packets dropped/interface down, count"
scalar multi.cli1.ppp[1].ppp 	droppedPkIfaceDown:sum(packetBytes) 	0
attr interpolationmode  none
attr source  dropPkIfaceDown
attr title  "packets dropped/interface down, sum(packetBytes)"
scalar multi.cli1.ppp[1].ppp 	droppedPkBitError:count 	3
attr interpolationmode  none
attr source  dropPkBitError
attr title  "packets dropped/bit error, count"
scalar multi.cli1.ppp[1].ppp 	droppedPkBitError:sum(packetBytes) 	169
attr interpolationmode  none
attr source  dropPkBitError
attr title  "packets dropped/bit error, sum(packetBytes)"
scalar multi.cli1.ppp[1].ppp 	rxPkOk:count 	12
attr interpolationmode  none
attr source  rxPkOk
attr title  "packets received OK, count"
scalar multi.cli1.ppp[1].ppp 	rxPkOk:sum(packetBytes) 	724
attr interpolationmode  none
attr source  rxPkOk
attr title  "packets received OK, sum(packetBytes)"
scalar multi.cli1.ppp[1].ppp 	txPk:count 	24
attr interpolationmode  none
attr source  packetSentToLower
attr title  "packets transmitted, count"
scalar multi.cli1.ppp[1].ppp 	txPk:sum(packetBytes) 	73252
attr interpolationmode  none
attr source  packetSentToLower
attr title  "packets transmitted, sum(packetBytes)"
scalar multi.cli1.ppp[1].ppp 	rcvdPkFromHL:count 	24
attr interpolationmode  none
attr source  packetReceivedFromUpper
attr title  "packets received from higher layer, count"
scalar multi.cli1.ppp[1].ppp 	rcvdPkFromHL:sum(packetBytes) 	73084
attr interpolationmode  none
attr source  packetReceivedFromUpper
attr title  "packets received from higher layer, sum(packetBytes)"
scalar multi.cli1.ppp[1].ppp 	passedUpPk:count 	12
attr interpolationmode  none
attr source  packetSentToUpper
attr title  "packets passed to higher layer, count"
scalar multi.cli1.ppp[1].ppp 	passedUpPk:sum(packetBytes) 	640
attr interpolationmode  none
attr source  packetSentToUpper
attr title  "packets passed to higher layer, sum(packetBytes)"
scalar multi.cli1.sctpApp[0] 	echoedPk:count 	0
attr interpolationmode  none
attr source  echoedPk
attr title  "packets echoed, count"
scalar multi.cli1.sctpApp[0] 	echoedPk:sum(packetBytes) 	0
attr interpolationmode  none
attr source  echoedPk
attr title  "packets echoed, sum(packetBytes)"
scalar multi.cli1.sctpApp[0] 	rcvdPk:count 	0
attr interpolationmode  none
attr source  rcvdPk
attr title  "packets received, count"
scalar multi.cli1.sctpApp[0] 	rcvdPk:sum(packetBytes) 	0
attr interpolationmode  none
attr source  rcvdPk
attr title  "packets received, sum(packetBytes)"
scalar multi.cli1.sctpApp[0] 	sentPk:count 	500
attr interpolationmode  none
attr source  sentPk
attr title  "packets sent, count"
scalar multi.cli1.sctpApp[0] 	sentPk:sum(packetBytes) 	700000
attr interpolationmode  none
attr source  sentPk
attr title  "packets sent, sum(packetBytes)"
scalar multi.cli1.sctp 	"Association Lifetime" 	115.947264
scalar multi.cli1.sctp 	"Acked Bytes" 	471800
scalar multi.cli1.sctp 	"Throughput [bit/s]" 	32552.730179127
scalar multi.cli1.sctp 	"Transmitted Bytes" 	701400
scalar multi.cli1.sctp 	"Fast RTX" 	41
scalar multi.cli1.sctp 	"Timer-Based RTX" 	123
scalar multi.cli1.sctp 	"Duplicate Acks" 	12
scalar multi.cli1.sctp 	"Packets Received" 	93
scalar multi.cli1.sctp 	"Packets Dropped" 	0
scalar multi.cli1.sctp 	"Sum of R Gap Ranges" 	967
scalar multi.cli1.sctp 	"Sum of NR Gap Ranges" 	0
scalar multi.cli1.sctp 	"Overfull SACKs" 	0
scalar multi.cli1.sctp 	"Drops Because New TSN Greater Than Highest TSN" 	0
scalar multi.cli1.sctp 	"Drops Because No Room In Buffer" 	0
scalar multi.cli1.sctp 	"Chunks Reneged" 	0
scalar multi.cli1.sctp 	sackPeriod 	0.2
scalar multi.cli1.sctp 	"Number of AUTH chunks sent" 	0
scalar multi.cli1.sctp 	"Number of AUTH chunks accepted" 	0
scalar multi.cli1.sctp 	"Number of AUTH chunks rejected" 	0
scalar multi.cli1.sctp 	"Number of StreamReset requests sent" 	0
scalar multi.cli1.sctp 	"Number of StreamReset requests performed" 	0
scalar multi.cli1.sctp 	"Number of PacketDrop Reports" 	0
scalar multi.cli1.sctp 	RTXMethod 	0
scalar multi.srv1.networkLayer.arp 	failedARPResolution:count 	0
attr title  "ARP failed resolutions, count"
scalar multi.srv1.networkLayer.arp 	completedARPResolution:count 	0
attr title  "ARP completed resolutions, count"
scalar multi.srv1.networkLayer.arp 	initiatedARPResolution:count 	0
attr title  "ARP initiated resolutions, count"
scalar multi.srv1.networkLayer.arp 	sentReply:count 	0
attr title  "ARP replies sent, count"
scalar multi.srv1.networkLayer.arp 	sentReq:count 	0
attr title  "ARP request sent, count"
scalar multi.srv1.lo0.lo 	droppedPkBitError:count 	0
attr interpolationmode  none
attr source  dropPkBitError
attr title  "packets dropped/bit error, count"
scalar multi.srv1.lo0.lo 	droppedPkBitError:sum(packetBytes) 	0
attr interpolationmode  none
attr source  dropPkBitError
attr title  "packets dropped/bit error, sum(packetBytes)"
scalar multi.srv1.lo0.lo 	rcvdPkFromHL:count 	0
attr interpolationmode  none
attr source  packetReceivedFromUpper
attr title  "packets received from higher layer, count"
scalar multi.srv1.lo0.lo 	rcvdPkFromHL:sum(packetBytes) 	0
attr interpolationmode  none
attr source  packetReceivedFromUpper
attr title  "packets received from higher layer, sum(packetBytes)"
scalar multi.srv1.lo0.lo 	passedUpPk:count 	0
attr interpolationmode  none
attr source  packetSentToUpper
attr title  "packets passed to higher layer, count"
scalar multi.srv1.lo0.lo 	passedUpPk:sum(packetBytes) 	0
attr interpolationmode  none
attr source  packetSentToUpper
attr title  "packets passed to higher layer, sum(packetBytes)"
statistic multi.srv1.ppp[0].queue 	queueingTime:histogram
field count 115
field mean 4.5913043478261e-05
field stddev 0.00036569543375187
field sum 0.00528
field sqrsum 1.5488e-05
field min 0
field max 0.00352
attr interpolationmode  none
attr title  "queueing time, histogram"
bin	-INF	0
bin	-0.5	0
bin	-0.46666666666667	0
bin	-0.43333333333333	0
bin	-0.4	0
bin	-0.36666666666667	0
bin	-0.33333333333333	0
bin	-0.3	0
bin	-0.26666666666667	0
bin	-0.23333333333333	0
bin	-0.2	0
bin	-0.16666666666667	0
bin	-0.13333333333333	0
bin	-0.1	0
bin	-0.066666666666667	0
bin	-0.033333333333333	0
bin	0	115
bin	0.033333333333333	0
bin	0.066666666666667	0
bin	0.1	0
bin	0.13333333333333	0
bin	0.16666666666667	0
bin	0.2	0
bin	0.23333333333333	0
bin	0.26666666666667	0
bin	0.3	0
bin	0.33333333333333	0
bin	0.36666666666667	0
bin	0.4	0
bin	0.43333333333333	0
bin	0.46666666666667	0
bin	0.5	0
scalar multi.srv1.ppp[0].queue 	dropPk:count 	0
attr interpolationmode  none
attr source  dropPkByQueue
attr title  "dropped packets, count"
scalar multi.srv1.ppp[0].queue 	dropPk:sum(packetBytes) 	0
attr interpolationmode  none
attr source  dropPkByQueue
attr title  "dropped packets, sum(packetBytes)"
scalar multi.srv1.ppp[0].queue 	queueLength:max 	2
attr interpolationmode  sample-hold
attr title  "queue length, max"
scalar multi.srv1.ppp[0].queue 	queueLength:timeavg 	4.3797712963061e-05
attr interpolationmode  sample-hold
attr title  "queue length, timeavg"
scalar multi.srv1.ppp[0].queue 	rcvdPk:count 	115
attr interpolationmode  none
attr title  "received packets, count"
scalar multi.srv1.ppp[0].queue 	rcvdPk:sum(packetBytes) 	6020
attr interpolationmode  none
attr title  "received packets, sum(packetBytes)"
scalar multi.srv1.ppp[0].ppp 	txState:timeavg 	0.001811632672563
attr interpolationmode  sample-hold
attr title  "tx state, timeavg"
scalar multi.srv1.ppp[0].ppp 	droppedPkIfaceDown:count 	0
attr interpolationmode  none
attr source  dropPkIfaceDown
attr title  "packets dropped/interface down, count"
scalar multi.srv1.ppp[0].ppp 	droppedPkIfaceDown:sum(packetBytes) 	0
attr interpolationmode  none
attr source  dropPkIfaceDown
attr title  "packets dropped/interface down, sum(packetBytes)"
scalar multi.srv1.ppp[0].ppp 	droppedPkBitError:count 	10
attr interpolationmode  none
attr source  dropPkBitError
attr title  "packets dropped/bit error, count"
scalar multi.srv1.ppp[0].ppp 	droppedPkBitError:sum(packetBytes) 	38638
attr interpolationmode  none
attr source  dropPkBitError
attr title  "packets dropped/bit error, sum(packetBytes)"
scalar multi.srv1.ppp[0].ppp 	rxPkOk:count 	114
attr interpolationmode  none
attr source  rxPkOk
attr title  "packets received OK, count"
scalar multi.srv1.ppp[0].ppp 	rxPkOk:sum(packetBytes) 	466222
attr interpolationmode  none
attr source  rxPkOk
attr title  "packets received OK, sum(packetBytes)"
scalar multi.srv1.ppp[0].ppp 	txPk:count 	115
attr interpolationmode  none
attr source  packetSentToLower
attr title  "packets transmitted, count"
scalar multi.srv1.ppp[0].ppp 	txPk:sum(packetBytes) 	6825
attr interpolationmode  none
attr source  packetSentToLower
attr title  "packets transmitted, sum(packetBytes)"
scalar multi.srv1.ppp[0].ppp 	rcvdPkFromHL:count 	115
attr interpolationmode  none
attr source  packetReceivedFromUpper
attr title  "packets received from higher layer, count"
scalar multi.srv1.ppp[0].ppp 	rcvdPkFromHL:sum(packetBytes) 	6020
attr interpolationmode  none
attr source  packetReceivedFromUpper
attr title  "packets received from higher layer, sum(packetBytes)"
scalar multi.srv1.ppp[0].ppp 	passedUpPk:count 	114
attr interpolationmode  none
attr source  packetSentToUpper
attr title  "packets passed to higher layer, count"
scalar multi.srv1.ppp[0].ppp 	passedUpPk:sum(packetBytes) 	465424
attr interpolationmode  none
attr source  packetSentToUpper
attr title  "packets passed to higher layer, sum(packetBytes)"
statistic multi.srv1.ppp[1].queue 	queueingTime:histogram
field count 18
field mean 0
field stddev 0
field sum 0
field sqrsum 0
field min 0
field max 0
attr interpolationmode  none
attr title  "queueing time, histogram"
bin	-INF	0
bin	-0.5	0
bin	-0.46666666666667	0
bin	-0.43333333333333	0
bin	-0.4	0
bin	-0.36666666666667	0
bin	-0.33333333333333	0
bin	-0.3	0
bin	-0.26666666666667	0
bin	-0.23333333333333	0
bin	-0.2	0
bin	-0.16666666666667	0
bin	-0.13333333333333	0
bin	-0.1	0
bin	-0.066666666666667	0
bin	-0.033333333333333	0
bin	0	18
bin	0.033333333333333	0
bin	0.066666666666667	0
bin	0.1	0
bin	0.13333333333333	0
bin	0.16666666666667	0
bin	0.2	0
bin	0.23333333333333	0
bin	0.26666666666667	0
bin	0.3	0
bin	0.33333333333333	0
bin	0.36666666666667	0
bin	0.4	0
bin	0.43333333333333	0
bin	0.46666666666667	0
bin	0.5	0
scalar multi.srv1.ppp[1].queue 	dropPk:count 	0
attr interpolationmode  none
attr source  dropPkByQueue
attr title  "dropped packets, count"
scalar multi.srv1.ppp[1].queue 	dropPk:sum(packetBytes) 	0
attr interpolationmode  none
attr source  dropPkByQueue
attr title  "dropped packets, sum(packetBytes)"
scalar multi.srv1.ppp[1].queue 	queueLength:max 	0
attr interpolationmode  sample-hold
attr title  "queue length, max"
scalar multi.srv1.ppp[1].queue 	queueLength:timeavg 	0
attr interpolationmode  sample-hold
attr title  "queue length, timeavg"
scalar multi.srv1.ppp[1].queue 	rcvdPk:count 	18
attr interpolationmode  none
attr title  "received packets, count"
scalar multi.srv1.ppp[1].queue 	rcvdPk:sum(packetBytes) 	944
attr interpolationmode  none
attr title  "received packets, sum(packetBytes)"
scalar multi.srv1.ppp[1].ppp 	txState:timeavg 	0.00028402153254834
attr interpolationmode  sample-hold
attr title  "tx state, timeavg"
scalar multi.srv1.ppp[1].ppp 	droppedPkIfaceDown:count 	0
attr interpolationmode  none
attr source  dropPkIfaceDown
attr title  "packets dropped/interface down, count"
scalar multi.srv1.ppp[1].ppp 	droppedPkIfaceDown:sum(packetBytes) 	0
attr interpolationmode  none
attr source  dropPkIfaceDown
attr title  "packets dropped/interface down, sum(packetBytes)"
scalar multi.srv1.ppp[1].ppp 	droppedPkBitError:count 	2
attr interpolationmode  none
attr source  dropPkBitError
attr title  "packets dropped/bit error, count"
scalar multi.srv1.ppp[1].ppp 	droppedPkBitError:sum(packetBytes) 	4342
attr interpolationmode  none
attr source  dropPkBitError
attr title  "packets dropped/bit error, sum(packetBytes)"
scalar multi.srv1.ppp[1].ppp 	rxPkOk:count 	17
attr interpolationmode  none
attr source  rxPkOk
attr title  "packets received OK, count"
scalar multi.srv1.ppp[1].ppp 	rxPkOk:sum(packetBytes) 	51707
attr interpolationmode  none
attr source  rxPkOk
attr title  "packets received OK, sum(packetBytes)"
scalar multi.srv1.ppp[1].ppp 	txPk:count 	18
attr interpolationmode  none
attr source  packetSentToLower
attr title  "packets transmitted, count"
scalar multi.srv1.ppp[1].ppp 	txPk:sum(packetBytes) 	1070
attr interpolationmode  none
attr source  packetSentToLower
attr title  "packets transmitted, sum(packetBytes)"
scalar multi.srv1.ppp[1].ppp 	rcvdPkFromHL:count 	18
attr interpolationmode  none
attr source  packetReceivedFromUpper
attr title  "packets received from higher layer, count"
scalar multi.srv1.ppp[1].ppp 	rcvdPkFromHL:sum(packetBytes) 	944
attr interpolationmode  none
attr source  packetReceivedFromUpper
attr title  "packets received from higher layer, sum(packetBytes)"
scalar multi.srv1.ppp[1].ppp 	passedUpPk:count 	17
attr interpolationmode  none
attr source  packetSentToUpper
attr title  "packets passed to higher layer, count"
scalar multi.srv1.ppp[1].ppp 	passedUpPk:sum(packetBytes) 	51588
attr interpolationmode  none
attr source  packetSentToUpper
attr title  "packets passed to higher layer, sum(packetBytes)"
scalar multi.srv1.sctpApp[0] 	"bytes rcvd" 	471800
scalar multi.srv1.sctpApp[0] 	throughput 	32970.273643488
scalar multi.srv1.sctp 	"Bytes received on stream 0 of assoc 2" 	0
scalar multi.srv1.sctp 	"Bytes received on stream 1 of assoc 2" 	0
scalar multi.srv1.sctp 	"Bytes received on stream 2 of assoc 2" 	0
scalar multi.srv1.sctp 	"Bytes received on stream 3 of assoc 2" 	0
scalar multi.srv1.sctp 	"Bytes received on stream 4 of assoc 2" 	0
scalar multi.srv1.sctp 	"Bytes received on stream 5 of assoc 2" 	0
scalar multi.srv1.sctp 	"Bytes received on stream 6 of assoc 2" 	0
scalar multi.srv1.sctp 	"Bytes received on stream 7 of assoc 2" 	0
scalar multi.srv1.sctp 	"Bytes received on stream 8 of assoc 2" 	0
scalar multi.srv1.sctp 	"Bytes received on stream 9 of assoc 2" 	0
scalar multi.srv1.sctp 	"Bytes received on stream 10 of assoc 2" 	0
scalar multi.srv1.sctp 	"Bytes received on stream 11 of assoc 2" 	0
scalar multi.srv1.sctp 	"Bytes received on stream 12 of assoc 2" 	0
scalar multi.srv1.sctp 	"Bytes received on stream 13 of assoc 2" 	0
scalar multi.srv1.sctp 	"Bytes received on stream 14 of assoc 2" 	0
scalar multi.srv1.sctp 	"Bytes received on stream 15 of assoc 2" 	0
scalar multi.srv1.sctp 	"Bytes received on stream 16 of assoc 2" 	0
scalar multi.srv1.sctp 	"Blocking TSNs Moved" 	0
scalar multi.srv1.sctp 	"Association Lifetime" 	115.956896
scalar multi.srv1.sctp 	"Acked Bytes" 	0
scalar multi.srv1.sctp 	"Throughput [bit/s]" 	0
scalar multi.srv1.sctp 	"Transmitted Bytes" 	0
scalar multi.srv1.sctp 	"Fast RTX" 	0
scalar multi.srv1.sctp 	"Timer-Based RTX" 	0
scalar multi.srv1.sctp 	"Duplicate Acks" 	0
scalar multi.srv1.sctp 	"Packets Received" 	131
scalar multi.srv1.sctp 	"Packets Dropped" 	0
scalar multi.srv1.sctp 	"Sum of R Gap Ranges" 	0
scalar multi.srv1.sctp 	"Sum of NR Gap Ranges" 	0
scalar multi.srv1.sctp 	"Overfull SACKs" 	0
scalar multi.srv1.sctp 	"Drops Because New TSN Greater Than Highest TSN" 	1
scalar multi.srv1.sctp 	"Drops Because No Room In Buffer" 	0
scalar multi.srv1.sctp 	"Chunks Reneged" 	3
scalar multi.srv1.sctp 	sackPeriod 	0.2
scalar multi.srv1.sctp 	"Number of AUTH chunks sent" 	0
scalar multi.srv1.sctp 	"Number of AUTH chunks accepted" 	0
scalar multi.srv1.sctp 	"Number of AUTH chunks rejected" 	0
scalar multi.srv1.sctp 	"Number of StreamReset requests sent" 	0
scalar multi.srv1.sctp 	"Number of StreamReset requests performed" 	0
scalar multi.srv1.sctp 	"Number of PacketDrop Reports" 	0
scalar multi.srv1.sctp 	"Average End to End Delay" 	1.2916576
scalar multi.srv1.sctp 	RTXMethod 	0
scalar multi.router1.networkLayer.arp 	failedARPResolution:count 	0
attr title  "ARP failed resolutions, count"
scalar multi.router1.networkLayer.arp 	completedARPResolution:count 	0
attr title  "ARP completed resolutions, count"
scalar multi.router1.networkLayer.arp 	initiatedARPResolution:count 	0
attr title  "ARP initiated resolutions, count"
scalar multi.router1.networkLayer.arp 	sentReply:count 	0
attr title  "ARP replies sent, count"
scalar multi.router1.networkLayer.arp 	sentReq:count 	0
attr title  "ARP request sent, count"
scalar multi.router1.lo0.lo 	droppedPkBitError:count 	0
attr interpolationmode  none
attr source  dropPkBitError
attr title  "packets dropped/bit error, count"
scalar multi.router1.lo0.lo 	droppedPkBitError:sum(packetBytes) 	0
attr interpolationmode  none
attr source  dropPkBitError
attr title  "packets dropped/bit error, sum(packetBytes)"
scalar multi.router1.lo0.lo 	rcvdPkFromHL:count 	0
attr interpolationmode  none
attr source  packetReceivedFromUpper
attr title  "packets received from higher layer, count"
scalar multi.router1.lo0.lo 	rcvdPkFromHL:sum(packetBytes) 	0
attr interpolationmode  none
attr source  packetReceivedFromUpper
attr title  "packets received from higher layer, sum(packetBytes)"
scalar multi.router1.lo0.lo 	passedUpPk:count 	0
attr interpolationmode  none
attr source  packetSentToUpper
attr title  "packets passed to higher layer, count"
scalar multi.router1.lo0.lo 	passedUpPk:sum(packetBytes) 	0
attr interpolationmode  none
attr source  packetSentToUpper
attr title  "packets passed to higher layer, sum(packetBytes)"
statistic multi.router1.ppp[0].queue 	queueingTime:histogram
field count 91
field mean 0
field stddev 0
field sum 0
field sqrsum 0
field min 0
field max 0
attr interpolationmode  none
attr title  "queueing time, histogram"
bin	-INF	0
bin	-0.5	0
bin	-0.46666666666667	0
bin	-0.43333333333333	0
bin	-0.4	0
bin	-0.36666666666667	0
bin	-0.33333333333333	0
bin	-0.3	0
bin	-0.26666666666667	0
bin	-0.23333333333333	0
bin	-0.2	0
bin	-0.16666666666667	0
bin	-0.13333333333333	0
bin	-0.1	0
bin	-0.066666666666667	0
bin	-0.033333333333333	0
bin	0	91
bin	0.033333333333333	0
bin	0.066666666666667	0
bin	0.1	0
bin	0.13333333333333	0
bin	0.16666666666667	0
bin	0.2	0
bin	0.23333333333333	0
bin	0.26666666666667	0
bin	0.3	0
bin	0.33333333333333	0
bin	0.36666666666667	0
bin	0.4	0
bin	0.43333333333333	0
bin	0.46666666666667	0
bin	0.5	0
scalar multi.router1.ppp[0].queue 	dropPk:count 	0
attr interpolationmode  none
attr source  dropPkByQueue
attr title  "dropped packets, count"
scalar multi.router1.ppp[0].queue 	dropPk:sum(packetBytes) 	0
attr interpolationmode  none
attr source  dropPkByQueue
attr title  "dropped packets, sum(packetBytes)"
scalar multi.router1.ppp[0].queue 	queueLength:max 	0
attr interpolationmode  sample-hold
attr title  "queue length, max"
scalar multi.router1.ppp[0].queue 	queueLength:timeavg 	0
attr interpolationmode  sample-hold
attr title  "queue length, timeavg"
scalar multi.router1.ppp[0].queue 	rcvdPk:count 	91
attr interpolationmode  none
attr title  "received packets, count"
scalar multi.router1.ppp[0].queue 	rcvdPk:sum(packetBytes) 	4784
attr interpolationmode  none
attr title  "received packets, sum(packetBytes)"
scalar multi.router1.ppp[0].ppp 	txState:timeavg 	0.00143895395135
attr interpolationmode  sample-hold
attr title  "tx state, timeavg"
scalar multi.router1.ppp[0].ppp 	droppedPkIfaceDown:count 	0
attr interpolationmode  none
attr source  dropPkIfaceDown
attr title  "packets dropped/interface down, count"
scalar multi.router1.ppp[0].ppp 	droppedPkIfaceDown:sum(packetBytes) 	0
attr interpolationmode  none
attr source  dropPkIfaceDown
attr title  "packets dropped/interface down, sum(packetBytes)"
scalar multi.router1.ppp[0].ppp 	droppedPkBitError:count 	17
attr interpolationmode  none
attr source  dropPkBitError
attr title  "packets dropped/bit error, count"
scalar multi.router1.ppp[0].ppp 	droppedPkBitError:sum(packetBytes) 	68715
attr interpolationmode  none
attr source  dropPkBitError
attr title  "packets dropped/bit error, sum(packetBytes)"
scalar multi.router1.ppp[0].ppp 	rxPkOk:count 	141
attr interpolationmode  none
attr source  rxPkOk
attr title  "packets received OK, count"
scalar multi.router1.ppp[0].ppp 	rxPkOk:sum(packetBytes) 	574907
attr interpolationmode  none
attr source  rxPkOk
attr title  "packets received OK, sum(packetBytes)"
scalar multi.router1.ppp[0].ppp 	txPk:count 	91
attr interpolationmode  none
attr source  packetSentToLower
attr title  "packets transmitted, count"
scalar multi.router1.ppp[0].ppp 	txPk:sum(packetBytes) 	5421
attr interpolationmode  none
attr source  packetSentToLower
attr title  "packets transmitted, sum(packetBytes)"
scalar multi.router1.ppp[0].ppp 	rcvdPkFromHL:count 	91
attr interpolationmode  none
attr source  packetReceivedFromUpper
attr title  "packets received from higher layer, count"
scalar multi.router1.ppp[0].ppp 	rcvdPkFromHL:sum(packetBytes) 	4784
attr interpolationmode  none
attr source  packetReceivedFromUpper
attr title  "packets received from higher layer, sum(packetBytes)"
scalar multi.router1.ppp[0].ppp 	passedUpPk:count 	141
attr interpolationmode  none
attr source  packetSentToUpper
attr title  "packets passed to higher layer, count"
scalar multi.router1.ppp[0].ppp 	passedUpPk:sum(packetBytes) 	573920
attr interpolationmode  none
attr source  packetSentToUpper
attr title  "packets passed to higher layer, sum(packetBytes)"
statistic multi.router1.ppp[1].queue 	queueingTime:histogram
field count 141
field mean 0.27039341843972
field stddev 0.27784368112782
field sum 38.125472
field sqrsum 21.11647226368
field min 0
field max 0.890432
attr interpolationmode  none
attr title  "queueing time, histogram"
bin	-INF	0
bin	-0.445216	0
bin	-0.38585386666667	0
bin	-0.32649173333333	0
bin	-0.2671296	0
bin	-0.20776746666667	0
bin	-0.14840533333333	0
bin	-0.0890432	0
bin	-0.029681066666667	45
bin	0.029681066666667	6
bin	0.0890432	24
bin	0.14840533333333	2
bin	0.20776746666667	6
bin	0.2671296	7
bin	0.32649173333333	5
bin	0.38585386666667	3
bin	0.445216	7
bin	0.50457813333333	10
bin	0.56394026666667	9
bin	0.6233024	4
bin	0.68266453333333	0
bin	0.74202666666667	4
bin	0.8013888	5
bin	0.86075093333333	4
bin	0.92011306666667	0
bin	0.9794752	0
bin	1.0388373333333	0
bin	1.0981994666667	0
bin	1.1575616	0
bin	1.2169237333333	0
bin	1.2762858666667	0
bin	1.335648	0
scalar multi.router1.ppp[1].queue 	dropPk:count 	0
attr interpolationmode  none
attr source  dropPkByQueue
attr title  "dropped packets, count"
scalar multi.router1.ppp[1].queue 	dropPk:sum(packetBytes) 	0
attr interpolationmode  none
attr source  dropPkByQueue
attr title  "dropped packets, sum(packetBytes)"
scalar multi.router1.ppp[1].queue 	queueLength:max 	4
attr interpolationmode  sample-hold
attr title  "queue length, max"
scalar multi.router1.ppp[1].queue 	queueLength:timeavg 	0.31625160591614
attr interpolationmode  sample-hold
attr title  "queue length, timeavg"
scalar multi.router1.ppp[1].queue 	rcvdPk:count 	141
attr interpolationmode  none
attr title  "received packets, count"
scalar multi.router1.ppp[1].queue 	rcvdPk:sum(packetBytes) 	573920
attr interpolationmode  none
attr title  "received packets, sum(packetBytes)"
scalar multi.router1.ppp[1].ppp 	txState:timeavg 	0.30520741535097
attr interpolationmode  sample-hold
attr title  "tx state, timeavg"
scalar multi.router1.ppp[1].ppp 	droppedPkIfaceDown:count 	0
attr interpolationmode  none
attr source  dropPkIfaceDown
attr title  "packets dropped/interface down, count"
scalar multi.router1.ppp[1].ppp 	droppedPkIfaceDown:sum(packetBytes) 	0
attr interpolationmode  none
attr source  dropPkIfaceDown
attr title  "packets dropped/interface down, sum(packetBytes)"
scalar multi.router1.ppp[1].ppp 	droppedPkBitError:count 	10
attr interpolationmode  none
attr source  dropPkBitError
attr title  "packets dropped/bit error, count"
scalar multi.router1.ppp[1].ppp 	droppedPkBitError:sum(packetBytes) 	590
attr interpolationmode  none
attr source  dropPkBitError
attr title  "packets dropped/bit error, sum(packetBytes)"
scalar multi.router1.ppp[1].ppp 	rxPkOk:count 	91
attr interpolationmode  none
attr source  rxPkOk
attr title  "packets received OK, count"
scalar multi.router1.ppp[1].ppp 	rxPkOk:sum(packetBytes) 	5421
attr interpolationmode  none
attr source  rxPkOk
attr title  "packets received OK, sum(packetBytes)"
scalar multi.router1.ppp[1].ppp 	txPk:count 	141
attr interpolationmode  none
attr source  packetSentToLower
attr title  "packets transmitted, count"
scalar multi.router1.ppp[1].ppp 	txPk:sum(packetBytes) 	574907
attr interpolationmode  none
attr source  packetSentToLower
attr title  "packets transmitted, sum(packetBytes)"
scalar multi.router1.ppp[1].ppp 	rcvdPkFromHL:count 	141
attr interpolationmode  none
attr source  packetReceivedFromUpper
attr title  "packets received from higher layer, count"
scalar multi.router1.ppp[1].ppp 	rcvdPkFromHL:sum(packetBytes) 	573920
attr interpolationmode  none
attr source  packetReceivedFromUpper
attr title  "packets received from higher layer, sum(packetBytes)"
scalar multi.router1.ppp[1].ppp 	passedUpPk:count 	91
attr interpolationmode  none
attr source  packetSentToUpper
attr title  "packets passed to higher layer, count"
scalar multi.router1.ppp[1].ppp 	passedUpPk:sum(packetBytes) 	4784
attr interpolationmode  none
attr source  packetSentToUpper
attr title  "packets passed to higher layer, sum(packetBytes)"
scalar multi.router2.networkLayer.arp 	failedARPResolution:count 	0
attr title  "ARP failed resolutions, count"
scalar multi.router2.networkLayer.arp 	completedARPResolution:count 	0
attr title  "ARP completed resolutions, count"
scalar multi.router2.networkLayer.arp 	initiatedARPResolution:count 	0
attr title  "ARP initiated resolutions, count"
scalar multi.router2.networkLayer.arp 	sentReply:count 	0
attr title  "ARP replies sent, count"
scalar multi.router2.networkLayer.arp 	sentReq:count 	0
attr title  "ARP request sent, count"
scalar multi.router2.lo0.lo 	droppedPkBitError:count 	0
attr interpolationmode  none
attr source  dropPkBitError
attr title  "packets dropped/bit error, count"
scalar multi.router2.lo0.lo 	droppedPkBitError:sum(packetBytes) 	0
attr interpolationmode  none
attr source  dropPkBitError
attr title  "packets dropped/bit error, sum(packetBytes)"
scalar multi.router2.lo0.lo 	rcvdPkFromHL:count 	0
attr interpolationmode  none
attr source  packetReceivedFromUpper
attr title  "packets received from higher layer, count"
scalar multi.router2.lo0.lo 	rcvdPkFromHL:sum(packetBytes) 	0
attr interpolationmode  none
attr source  packetReceivedFromUpper
attr title  "packets received from higher layer, sum(packetBytes)"
scalar multi.router2.lo0.lo 	passedUpPk:count 	0
attr interpolationmode  none
attr source  packetSentToUpper
attr title  "packets passed to higher layer, count"
scalar multi.router2.lo0.lo 	passedUpPk:sum(packetBytes) 	0
attr interpolationmode  none
attr source  packetSentToUpper
attr title  "packets passed to higher layer, sum(packetBytes)"
statistic multi.router2.ppp[0].queue 	queueingTime:histogram
field count 101
field mean 0
field stddev 0
field sum 0
field sqrsum 0
field min 0
field max 0
attr interpolationmode  none
attr title  "queueing time, histogram"
bin	-INF	0
bin	-0.5	0
bin	-0.46666666666667	0
bin	-0.43333333333333	0
bin	-0.4	0
bin	-0.36666666666667	0
bin	-0.33333333333333	0
bin	-0.3	0
bin	-0.26666666666667	0
bin	-0.23333333333333	0
bin	-0.2	0
bin	-0.16666666666667	0
bin	-0.13333333333333	0
bin	-0.1	0
bin	-0.066666666666667	0
bin	-0.033333333333333	0
bin	0	101
bin	0.033333333333333	0
bin	0.066666666666667	0
bin	0.1	0
bin	0.13333333333333	0
bin	0.16666666666667	0
bin	0.2	0
bin	0.23333333333333	0
bin	0.26666666666667	0
bin	0.3	0
bin	0.33333333333333	0
bin	0.36666666666667	0
bin	0.4	0
bin	0.43333333333333	0
bin	0.46666666666667	0
bin	0.5	0
scalar multi.router2.ppp[0].queue 	dropPk:count 	0
attr interpolationmode  none
attr source  dropPkByQueue
attr title  "dropped packets, count"
scalar multi.router2.ppp[0].queue 	dropPk:sum(packetBytes) 	0
attr interpolationmode  none
attr source  dropPkByQueue
attr title  "dropped packets, sum(packetBytes)"
scalar multi.router2.ppp[0].queue 	queueLength:max 	0
attr interpolationmode  sample-hold
attr title  "queue length, max"
scalar multi.router2.ppp[0].queue 	queueLength:timeavg 	0
attr interpolationmode  sample-hold
attr title  "queue length, timeavg"
scalar multi.router2.ppp[0].queue 	rcvdPk:count 	101
attr interpolationmode  none
attr title  "received packets, count"
scalar multi.router2.ppp[0].queue 	rcvdPk:sum(packetBytes) 	5304
attr interpolationmode  none
attr title  "received packets, sum(packetBytes)"
scalar multi.router2.ppp[0].ppp 	txState:timeavg 	0.0031911279105571
attr interpolationmode  sample-hold
attr title  "tx state, timeavg"
scalar multi.router2.ppp[0].ppp 	droppedPkIfaceDown:count 	0
attr interpolationmode  none
attr source  dropPkIfaceDown
attr title  "packets dropped/interface down, count"
scalar multi.router2.ppp[0].ppp 	droppedPkIfaceDown:sum(packetBytes) 	0
attr interpolationmode  none
attr source  dropPkIfaceDown
attr title  "packets dropped/interface down, sum(packetBytes)"
scalar multi.router2.ppp[0].ppp 	droppedPkBitError:count 	17
attr interpolationmode  none
attr source  dropPkBitError
attr title  "packets dropped/bit error, count"
scalar multi.router2.ppp[0].ppp 	droppedPkBitError:sum(packetBytes) 	70047
attr interpolationmode  none
attr source  dropPkBitError
attr title  "packets dropped/bit error, sum(packetBytes)"
scalar multi.router2.ppp[0].ppp 	rxPkOk:count 	124
attr interpolationmode  none
attr source  rxPkOk
attr title  "packets received OK, count"
scalar multi.router2.ppp[0].ppp 	rxPkOk:sum(packetBytes) 	504860
attr interpolationmode  none
attr source  rxPkOk
attr title  "packets received OK, sum(packetBytes)"
scalar multi.router2.ppp[0].ppp 	txPk:count 	101
attr interpolationmode  none
attr source  packetSentToLower
attr title  "packets transmitted, count"
scalar multi.router2.ppp[0].ppp 	txPk:sum(packetBytes) 	6011
attr interpolationmode  none
attr source  packetSentToLower
attr title  "packets transmitted, sum(packetBytes)"
scalar multi.router2.ppp[0].ppp 	rcvdPkFromHL:count 	101
attr interpolationmode  none
attr source  packetReceivedFromUpper
attr title  "packets received from higher layer, count"
scalar multi.router2.ppp[0].ppp 	rcvdPkFromHL:sum(packetBytes) 	5304
attr interpolationmode  none
attr source  packetReceivedFromUpper
attr title  "packets received from higher layer, sum(packetBytes)"
scalar multi.router2.ppp[0].ppp 	passedUpPk:count 	124
attr interpolationmode  none
attr source  packetSentToUpper
attr title  "packets passed to higher layer, count"
scalar multi.router2.ppp[0].ppp 	passedUpPk:sum(packetBytes) 	503992
attr interpolationmode  none
attr source  packetSentToUpper
attr title  "packets passed to higher layer, sum(packetBytes)"
statistic multi.router2.ppp[1].queue 	queueingTime:histogram
field count 124
field mean 0.0017886451612903
field stddev 0.013175682793553
field sum 0.221792
field sqrsum 0.021749337088
field min 0
field max 0.133664
attr interpolationmode  none
attr title  "queueing time, histogram"
bin	-INF	0
bin	-0.022032	0
bin	-0.0190944	0
bin	-0.0161568	0
bin	-0.0132192	0
bin	-0.0102816	0
bin	-0.007344	0
bin	-0.0044064	0
bin	-0.0014688	121
bin	0.0014688	0
bin	0.0044064	0
bin	0.007344	0
bin	0.0102816	0
bin	0.0132192	0
bin	0.0161568	0
bin	0.0190944	0
bin	0.022032	0
bin	0.0249696	0
bin	0.0279072	0
bin	0.0308448	0
bin	0.0337824	0
bin	0.03672	0
bin	0.0396576	0
bin	0.0425952	2
bin	0.0455328	0
bin	0.0484704	0
bin	0.051408	0
bin	0.0543456	0
bin	0.0572832	0
bin	0.0602208	0
bin	0.0631584	0
bin	0.066096	1
scalar multi.router2.ppp[1].queue 	dropPk:count 	0
attr interpolationmode  none
attr source  dropPkByQueue
attr title  "dropped packets, count"
scalar multi.router2.ppp[1].queue 	dropPk:sum(packetBytes) 	0
attr interpolationmode  none
attr source  dropPkByQueue
attr title  "dropped packets, sum(packetBytes)"
scalar multi.router2.ppp[1].queue 	queueLength:max 	1
attr interpolationmode  sample-hold
attr title  "queue length, max"
scalar multi.router2.ppp[1].queue 	queueLength:timeavg 	0.0018397693851332
attr interpolationmode  sample-hold
attr title  "queue length, timeavg"
scalar multi.router2.ppp[1].queue 	rcvdPk:count 	124
attr interpolationmode  none
attr title  "received packets, count"
scalar multi.router2.ppp[1].queue 	rcvdPk:sum(packetBytes) 	503992
attr interpolationmode  none
attr title  "received packets, sum(packetBytes)"
scalar multi.router2.ppp[1].ppp 	txState:timeavg 	0.13401038403958
attr interpolationmode  sample-hold
attr title  "tx state, timeavg"
scalar multi.router2.ppp[1].ppp 	droppedPkIfaceDown:count 	0
attr interpolationmode  none
attr source  dropPkIfaceDown
attr title  "packets dropped/interface down, count"
scalar multi.router2.ppp[1].ppp 	droppedPkIfaceDown:sum(packetBytes) 	0
attr interpolationmode  none
attr source  dropPkIfaceDown
attr title  "packets dropped/interface down, sum(packetBytes)"
scalar multi.router2.ppp[1].ppp 	droppedPkBitError:count 	14
attr interpolationmode  none
attr source  dropPkBitError
attr title  "packets dropped/bit error, count"
scalar multi.router2.ppp[1].ppp 	droppedPkBitError:sum(packetBytes) 	814
attr interpolationmode  none
attr source  dropPkBitError
attr title  "packets dropped/bit error, sum(packetBytes)"
scalar multi.router2.ppp[1].ppp 	rxPkOk:count 	101
attr interpolationmode  none
attr source  rxPkOk
attr title  "packets received OK, count"
scalar multi.router2.ppp[1].ppp 	rxPkOk:sum(packetBytes) 	6011
attr interpolationmode  none
attr source  rxPkOk
attr title  "packets received OK, sum(packetBytes)"
scalar multi.router2.ppp[1].ppp 	txPk:count 	124
attr interpolationmode  none
attr source  packetSentToLower
attr title  "packets transmitted, count"
scalar multi.router2.ppp[1].ppp 	txPk:sum(packetBytes) 	504860
attr interpolationmode  none
attr source  packetSentToLower
attr title  "packets transmitted, sum(packetBytes)"
scalar multi.router2.ppp[1].ppp 	rcvdPkFromHL:count 	124
attr interpolationmode  none
attr source  packetReceivedFromUpper
attr title  "packets received from higher layer, count"
scalar multi.router2.ppp[1].ppp 	rcvdPkFromHL:sum(packetBytes) 	503992
attr interpolationmode  none
attr source  packetReceivedFromUpper
attr title  "packets received from higher layer, sum(packetBytes)"
scalar multi.router2.ppp[1].ppp 	passedUpPk:count 	101
attr interpolationmode  none
attr source  packetSentToUpper
attr title  "packets passed to higher layer, count"
scalar multi.router2.ppp[1].ppp 	passedUpPk:sum(packetBytes) 	5304
attr interpolationmode  none
attr source  packetSentToUpper
attr title  "packets passed to higher layer, sum(packetBytes)"
scalar multi.router3.networkLayer.arp 	failedARPResolution:count 	0
attr title  "ARP failed resolutions, count"
scalar multi.router3.networkLayer.arp 	completedARPResolution:count 	0
attr title  "ARP completed resolutions, count"
scalar multi.router3.networkLayer.arp 	initiatedARPResolution:count 	0
attr title  "ARP initiated resolutions, count"
scalar multi.router3.networkLayer.arp 	sentReply:count 	0
attr title  "ARP replies sent, count"
scalar multi.router3.networkLayer.arp 	sentReq:count 	0
attr title  "ARP request sent, count"
scalar multi.router3.lo0.lo 	droppedPkBitError:count 	0
attr interpolationmode  none
attr source  dropPkBitError
attr title  "packets dropped/bit error, count"
scalar multi.router3.lo0.lo 	droppedPkBitError:sum(packetBytes) 	0
attr interpolationmode  none
attr source  dropPkBitError
attr title  "packets dropped/bit error, sum(packetBytes)"
scalar multi.router3.lo0.lo 	rcvdPkFromHL:count 	0
attr interpolationmode  none
attr source  packetReceivedFromUpper
attr title  "packets received from higher layer, count"
scalar multi.router3.lo0.lo 	rcvdPkFromHL:sum(packetBytes) 	0
attr interpolationmode  none
attr source  packetReceivedFromUpper
attr title  "packets received from higher layer, sum(packetBytes)"
scalar multi.router3.lo0.lo 	passedUpPk:count 	0
attr interpolationmode  none
attr source  packetSentToUpper
attr title  "packets passed to higher layer, count"
scalar multi.router3.lo0.lo 	passedUpPk:sum(packetBytes) 	0
attr interpolationmode  none
attr source  packetSentToUpper
attr title  "packets passed to higher layer, sum(packetBytes)"
statistic multi.router3.ppp[0].queue 	queueingTime:histogram
field count 15
field mean 0
field stddev 0
field sum 0
field sqrsum 0
field min 0
field max 0
attr interpolationmode  none
attr title  "queueing time, histogram"
bin	-INF	0
bin	-0.5	0
bin	-0.46666666666667	0
bin	-0.43333333333333	0
bin	-0.4	0
bin	-0.36666666666667	0
bin	-0.33333333333333	0
bin	-0.3	0
bin	-0.26666666666667	0
bin	-0.23333333333333	0
bin	-0.2	0
bin	-0.16666666666667	0
bin	-0.13333333333333	0
bin	-0.1	0
bin	-0.066666666666667	0
bin	-0.033333333333333	0
bin	0	15
bin	0.033333333333333	0
bin	0.066666666666667	0
bin	0.1	0
bin	0.13333333333333	0
bin	0.16666666666667	0
bin	0.2	0
bin	0.23333333333333	0
bin	0.26666666666667	0
bin	0.3	0
bin	0.33333333333333	0
bin	0.36666666666667	0
bin	0.4	0
bin	0.43333333333333	0
bin	0.46666666666667	0
bin	0.5	0
scalar multi.router3.ppp[0].queue 	dropPk:count 	0
attr interpolationmode  none
attr source  dropPkByQueue
attr title  "dropped packets, count"
scalar multi.router3.ppp[0].queue 	dropPk:sum(packetBytes) 	0
attr interpolationmode  none
attr source  dropPkByQueue
attr title  "dropped packets, sum(packetBytes)"
scalar multi.router3.ppp[0].queue 	queueLength:max 	0
attr interpolationmode  sample-hold
attr title  "queue length, max"
scalar multi.router3.ppp[0].queue 	queueLength:timeavg 	0
attr interpolationmode  sample-hold
attr title  "queue length, timeavg"
scalar multi.router3.ppp[0].queue 	rcvdPk:count 	15
attr interpolationmode  none
attr title  "received packets, count"
scalar multi.router3.ppp[0].queue 	rcvdPk:sum(packetBytes) 	788
attr interpolationmode  none
attr title  "received packets, sum(packetBytes)"
scalar multi.router3.ppp[0].ppp 	txState:timeavg 	0.00023703853136978
attr interpolationmode  sample-hold
attr title  "tx state, timeavg"
scalar multi.router3.ppp[0].ppp 	droppedPkIfaceDown:count 	0
attr interpolationmode  none
attr source  dropPkIfaceDown
attr title  "packets dropped/interface down, count"
scalar multi.router3.ppp[0].ppp 	droppedPkIfaceDown:sum(packetBytes) 	0
attr interpolationmode  none
attr source  dropPkIfaceDown
attr title  "packets dropped/interface down, sum(packetBytes)"
scalar multi.router3.ppp[0].ppp 	droppedPkBitError:count 	2
attr interpolationmode  none
attr source  dropPkBitError
attr title  "packets dropped/bit error, count"
scalar multi.router3.ppp[0].ppp 	droppedPkBitError:sum(packetBytes) 	8574
attr interpolationmode  none
attr source  dropPkBitError
attr title  "packets dropped/bit error, sum(packetBytes)"
scalar multi.router3.ppp[0].ppp 	rxPkOk:count 	22
attr interpolationmode  none
attr source  rxPkOk
attr title  "packets received OK, count"
scalar multi.router3.ppp[0].ppp 	rxPkOk:sum(packetBytes) 	64678
attr interpolationmode  none
attr source  rxPkOk
attr title  "packets received OK, sum(packetBytes)"
scalar multi.router3.ppp[0].ppp 	txPk:count 	15
attr interpolationmode  none
attr source  packetSentToLower
attr title  "packets transmitted, count"
scalar multi.router3.ppp[0].ppp 	txPk:sum(packetBytes) 	893
attr interpolationmode  none
attr source  packetSentToLower
attr title  "packets transmitted, sum(packetBytes)"
scalar multi.router3.ppp[0].ppp 	rcvdPkFromHL:count 	15
attr interpolationmode  none
attr source  packetReceivedFromUpper
attr title  "packets received from higher layer, count"
scalar multi.router3.ppp[0].ppp 	rcvdPkFromHL:sum(packetBytes) 	788
attr interpolationmode  none
attr source  packetReceivedFromUpper
attr title  "packets received from higher layer, sum(packetBytes)"
scalar multi.router3.ppp[0].ppp 	passedUpPk:count 	22
attr interpolationmode  none
attr source  packetSentToUpper
attr title  "packets passed to higher layer, count"
scalar multi.router3.ppp[0].ppp 	passedUpPk:sum(packetBytes) 	64524
attr interpolationmode  none
attr source  packetSentToUpper
attr title  "packets passed to higher layer, sum(packetBytes)"
statistic multi.router3.ppp[1].queue 	queueingTime:histogram
field count 22
field mean 0
field stddev 0
field sum 0
field sqrsum 0
field min 0
field max 0
attr interpolationmode  none
attr title  "queueing time, histogram"
bin	-INF	0
bin	-0.5	0
bin	-0.46666666666667	0
bin	-0.43333333333333	0
bin	-0.4	0
bin	-0.36666666666667	0
bin	-0.33333333333333	0
bin	-0.3	0
bin	-0.26666666666667	0
bin	-0.23333333333333	0
bin	-0.2	0
bin	-0.16666666666667	0
bin	-0.13333333333333	0
bin	-0.1	0
bin	-0.066666666666667	0
bin	-0.033333333333333	0
bin	0	22
bin	0.033333333333333	0
bin	0.066666666666667	0
bin	0.1	0
bin	0.13333333333333	0
bin	0.16666666666667	0
bin	0.2	0
bin	0.23333333333333	0
bin	0.26666666666667	0
bin	0.3	0
bin	0.33333333333333	0
bin	0.36666666666667	0
bin	0.4	0
bin	0.43333333333333	0
bin	0.46666666666667	0
bin	0.5	0
scalar multi.router3.ppp[1].queue 	dropPk:count 	0
attr interpolationmode  none
attr source  dropPkByQueue
attr title  "dropped packets, count"
scalar multi.router3.ppp[1].queue 	dropPk:sum(packetBytes) 	0
attr interpolationmode  none
attr source  dropPkByQueue
attr title  "dropped packets, sum(packetBytes)"
scalar multi.router3.ppp[1].queue 	queueLength:max 	0
attr interpolationmode  sample-hold
attr title  "queue length, max"
scalar multi.router3.ppp[1].queue 	queueLength:timeavg 	0
attr interpolationmode  sample-hold
attr title  "queue length, timeavg"
scalar multi.router3.ppp[1].queue 	rcvdPk:count 	22
attr interpolationmode  none
attr title  "received packets, count"
scalar multi.router3.ppp[1].queue 	rcvdPk:sum(packetBytes) 	64524
attr interpolationmode  none
attr title  "received packets, sum(packetBytes)"
scalar multi.router3.ppp[1].ppp 	txState:timeavg 	0.017168172600151
attr interpolationmode  sample-hold
attr title  "tx state, timeavg"
scalar multi.router3.ppp[1].ppp 	droppedPkIfaceDown:count 	0
attr interpolationmode  none
attr source  dropPkIfaceDown
attr title  "packets dropped/interface down, count"
scalar multi.router3.ppp[1].ppp 	droppedPkIfaceDown:sum(packetBytes) 	0
attr interpolationmode  none
attr source  dropPkIfaceDown
attr title  "packets dropped/interface down, sum(packetBytes)"
scalar multi.router3.ppp[1].ppp 	droppedPkBitError:count 	1
attr interpolationmode  none
attr source  dropPkBitError
attr title  "packets dropped/bit error, count"
scalar multi.router3.ppp[1].ppp 	droppedPkBitError:sum(packetBytes) 	59
attr interpolationmode  none
attr source  dropPkBitError
attr title  "packets dropped/bit error, sum(packetBytes)"
scalar multi.router3.ppp[1].ppp 	rxPkOk:count 	15
attr interpolationmode  none
attr source  rxPkOk
attr title  "packets received OK, count"
scalar multi.router3.ppp[1].ppp 	rxPkOk:sum(packetBytes) 	893
attr interpolationmode  none
attr source  rxPkOk
attr title  "packets received OK, sum(packetBytes)"
scalar multi.router3.ppp[1].ppp 	txPk:count 	22
attr interpolationmode  none
attr source  packetSentToLower
attr title  "packets transmitted, count"
scalar multi.router3.ppp[1].ppp 	txPk:sum(packetBytes) 	64678
attr interpolationmode  none
attr source  packetSentToLower
attr title  "packets transmitted, sum(packetBytes)"
scalar multi.router3.ppp[1].ppp 	rcvdPkFromHL:count 	22
attr interpolationmode  none
attr source  packetReceivedFromUpper
attr title  "packets received from higher layer, count"
scalar multi.router3.ppp[1].ppp 	rcvdPkFromHL:sum(packetBytes) 	64524
attr interpolationmode  none
attr source  packetReceivedFromUpper
attr title  "packets received from higher layer, sum(packetBytes)"
scalar multi.router3.ppp[1].ppp 	passedUpPk:count 	15
attr interpolationmode  none
attr source  packetSentToUpper
attr title  "packets passed to higher layer, count"
scalar multi.router3.ppp[1].ppp 	passedUpPk:sum(packetBytes) 	788
attr interpolationmode  none
attr source  packetSentToUpper
attr title  "packets passed to higher layer, sum(packetBytes)"
scalar multi.router4.networkLayer.arp 	failedARPResolution:count 	0
attr title  "ARP failed resolutions, count"
scalar multi.router4.networkLayer.arp 	completedARPResolution:count 	0
attr title  "ARP completed resolutions, count"
scalar multi.router4.networkLayer.arp 	initiatedARPResolution:count 	0
attr title  "ARP initiated resolutions, count"
scalar multi.router4.networkLayer.arp 	sentReply:count 	0
attr title  "ARP replies sent, count"
scalar multi.router4.networkLayer.arp 	sentReq:count 	0
attr title  "ARP request sent, count"
scalar multi.router4.lo0.lo 	droppedPkBitError:count 	0
attr interpolationmode  none
attr source  dropPkBitError
attr title  "packets dropped/bit error, count"
scalar multi.router4.lo0.lo 	droppedPkBitError:sum(packetBytes) 	0
attr interpolationmode  none
attr source  dropPkBitError
attr title  "packets dropped/bit error, sum(packetBytes)"
scalar multi.router4.lo0.lo 	rcvdPkFromHL:count 	0
attr interpolationmode  none
attr source  packetReceivedFromUpper
attr title  "packets received from higher layer, count"
scalar multi.router4.lo0.lo 	rcvdPkFromHL:sum(packetBytes) 	0
attr interpolationmode  none
attr source  packetReceivedFromUpper
attr title  "packets received from higher layer, sum(packetBytes)"
scalar multi.router4.lo0.lo 	passedUpPk:count 	0
attr interpolationmode  none
attr source  packetSentToUpper
attr title  "packets passed to higher layer, count"
scalar multi.router4.lo0.lo 	passedUpPk:sum(packetBytes) 	0
attr interpolationmode  none
attr source  packetSentToUpper
attr title  "packets passed to higher layer, sum(packetBytes)"
statistic multi.router4.ppp[0].queue 	queueingTime:histogram
field count 16
field mean 0
field stddev 0
field sum 0
field sqrsum 0
field min 0
field max 0
attr interpolationmode  none
attr title  "queueing time, histogram"
bin	-INF	0
bin	-0.5	0
bin	-0.46666666666667	0
bin	-0.43333333333333	0
bin	-0.4	0
bin	-0.36666666666667	0
bin	-0.33333333333333	0
bin	-0.3	0
bin	-0.26666666666667	0
bin	-0.23333333333333	0
bin	-0.2	0
bin	-0.16666666666667	0
bin	-0.13333333333333	0
bin	-0.1	0
bin	-0.066666666666667	0
bin	-0.033333333333333	0
bin	0	16
bin	0.033333333333333	0
bin	0.066666666666667	0
bin	0.1	0
bin	0.13333333333333	0
bin	0.16666666666667	0
bin	0.2	0
bin	0.23333333333333	0
bin	0.26666666666667	0
bin	0.3	0
bin	0.33333333333333	0
bin	0.36666666666667	0
bin	0.4	0
bin	0.43333333333333	0
bin	0.46666666666667	0
bin	0.5	0
scalar multi.router4.ppp[0].queue 	dropPk:count 	0
attr interpolationmode  none
attr source  dropPkByQueue
attr title  "dropped packets, count"
scalar multi.router4.ppp[0].queue 	dropPk:sum(packetBytes) 	0
attr interpolationmode  none
attr source  dropPkByQueue
attr title  "dropped packets, sum(packetBytes)"
scalar multi.router4.ppp[0].queue 	queueLength:max 	0
attr interpolationmode  sample-hold
attr title  "queue length, max"
scalar multi.router4.ppp[0].queue 	queueLength:timeavg 	0
attr interpolationmode  sample-hold
attr title  "queue length, timeavg"
scalar multi.router4.ppp[0].queue 	rcvdPk:count 	16
attr interpolationmode  none
attr title  "received packets, count"
scalar multi.router4.ppp[0].queue 	rcvdPk:sum(packetBytes) 	840
attr interpolationmode  none
attr title  "received packets, sum(packetBytes)"
scalar multi.router4.ppp[0].ppp 	txState:timeavg 	0.00025269953176263
attr interpolationmode  sample-hold
attr title  "tx state, timeavg"
scalar multi.router4.ppp[0].ppp 	droppedPkIfaceDown:count 	0
attr interpolationmode  none
attr source  dropPkIfaceDown
attr title  "packets dropped/interface down, count"
scalar multi.router4.ppp[0].ppp 	droppedPkIfaceDown:sum(packetBytes) 	0
attr interpolationmode  none
attr source  dropPkIfaceDown
attr title  "packets dropped/interface down, sum(packetBytes)"
scalar multi.router4.ppp[0].ppp 	droppedPkBitError:count 	3
attr interpolationmode  none
attr source  dropPkBitError
attr title  "packets dropped/bit error, count"
scalar multi.router4.ppp[0].ppp 	droppedPkBitError:sum(packetBytes) 	8629
attr interpolationmode  none
attr source  dropPkBitError
attr title  "packets dropped/bit error, sum(packetBytes)"
scalar multi.router4.ppp[0].ppp 	rxPkOk:count 	19
attr interpolationmode  none
attr source  rxPkOk
attr title  "packets received OK, count"
scalar multi.router4.ppp[0].ppp 	rxPkOk:sum(packetBytes) 	56049
attr interpolationmode  none
attr source  rxPkOk
attr title  "packets received OK, sum(packetBytes)"
scalar multi.router4.ppp[0].ppp 	txPk:count 	16
attr interpolationmode  none
attr source  packetSentToLower
attr title  "packets transmitted, count"
scalar multi.router4.ppp[0].ppp 	txPk:sum(packetBytes) 	952
attr interpolationmode  none
attr source  packetSentToLower
attr title  "packets transmitted, sum(packetBytes)"
scalar multi.router4.ppp[0].ppp 	rcvdPkFromHL:count 	16
attr interpolationmode  none
attr source  packetReceivedFromUpper
attr title  "packets received from higher layer, count"
scalar multi.router4.ppp[0].ppp 	rcvdPkFromHL:sum(packetBytes) 	840
attr interpolationmode  none
attr source  packetReceivedFromUpper
attr title  "packets received from higher layer, sum(packetBytes)"
scalar multi.router4.ppp[0].ppp 	passedUpPk:count 	19
attr interpolationmode  none
attr source  packetSentToUpper
attr title  "packets passed to higher layer, count"
scalar multi.router4.ppp[0].ppp 	passedUpPk:sum(packetBytes) 	55916
attr interpolationmode  none
attr source  packetSentToUpper
attr title  "packets passed to higher layer, sum(packetBytes)"
statistic multi.router4.ppp[1].queue 	queueingTime:histogram
field count 19
field mean 0
field stddev 0
field sum 0
field sqrsum 0
field min 0
field max 0
attr interpolationmode  none
attr title  "queueing time, histogram"
bin	-INF	0
bin	-0.5	0
bin	-0.46666666666667	0
bin	-0.43333333333333	0
bin	-0.4	0
bin	-0.36666666666667	0
bin	-0.33333333333333	0
bin	-0.3	0
bin	-0.26666666666667	0
bin	-0.23333333333333	0
bin	-0.2	0
bin	-0.16666666666667	0
bin	-0.13333333333333	0
bin	-0.1	0
bin	-0.066666666666667	0
bin	-0.033333333333333	0
bin	0	19
bin	0.033333333333333	0
bin	0.066666666666667	0
bin	0.1	0
bin	0.13333333333333	0
bin	0.16666666666667	0
bin	0.2	0
bin	0.23333333333333	0
bin	0.26666666666667	0
bin	0.3	0
bin	0.33333333333333	0
bin	0.36666666666667	0
bin	0.4	0
bin	0.43333333333333	0
bin	0.46666666666667	0
bin	0.5	0
scalar multi.router4.ppp[1].queue 	dropPk:count 	0
attr interpolationmode  none
attr source  dropPkByQueue
attr title  "dropped packets, count"
scalar multi.router4.ppp[1].queue 	dropPk:sum(packetBytes) 	0
attr interpolationmode  none
attr source  dropPkByQueue
attr title  "dropped packets, sum(packetBytes)"
scalar multi.router4.ppp[1].queue 	queueLength:max 	0
attr interpolationmode  sample-hold
attr title  "queue length, max"
scalar multi.router4.ppp[1].queue 	queueLength:timeavg 	0
attr interpolationmode  sample-hold
attr title  "queue length, timeavg"
scalar multi.router4.ppp[1].queue 	rcvdPk:count 	19
attr interpolationmode  none
attr title  "received packets, count"
scalar multi.router4.ppp[1].queue 	rcvdPk:sum(packetBytes) 	55916
attr interpolationmode  none
attr title  "received packets, sum(packetBytes)"
scalar multi.router4.ppp[1].ppp 	txState:timeavg 	0.014877684932525
attr interpolationmode  sample-hold
attr title  "tx state, timeavg"
scalar multi.router4.ppp[1].ppp 	droppedPkIfaceDown:count 	0
attr interpolationmode  none
attr source  dropPkIfaceDown
attr title  "packets dropped/interface down, count"
scalar multi.router4.ppp[1].ppp 	droppedPkIfaceDown:sum(packetBytes) 	0
attr interpolationmode  none
attr source  dropPkIfaceDown
attr title  "packets dropped/interface down, sum(packetBytes)"
scalar multi.router4.ppp[1].ppp 	droppedPkBitError:count 	2
attr interpolationmode  none
attr source  dropPkBitError
attr title  "packets dropped/bit error, count"
scalar multi.router4.ppp[1].ppp 	droppedPkBitError:sum(packetBytes) 	118
attr interpolationmode  none
attr source  dropPkBitError
attr title  "packets dropped/bit error, sum(packetBytes)"
scalar multi.router4.ppp[1].ppp 	rxPkOk:count 	16
attr interpolationmode  none
attr source  rxPkOk
attr title  "packets received OK, count"
scalar multi.router4.ppp[1].ppp 	rxPkOk:sum(packetBytes) 	952
attr interpolationmode  none
attr source  rxPkOk
attr title  "packets received OK, sum(packetBytes)"
scalar multi.router4.ppp[1].ppp 	txPk:count 	19
attr interpolationmode  none
attr source  packetSentToLower
attr title  "packets transmitted, count"
scalar multi.router4.ppp[1].ppp 	txPk:sum(packetBytes) 	56049
attr interpolationmode  none
attr source  packetSentToLower
attr title  "packets transmitted, sum(packetBytes)"
scalar multi.router4.ppp[1].ppp 	rcvdPkFromHL:count 	19
attr interpolationmode  none
attr source  packetReceivedFromUpper
attr title  "packets received from higher layer, count"
scalar multi.router4.ppp[1].ppp 	rcvdPkFromHL:sum(packetBytes) 	55916
attr interpolationmode  none
attr source  packetReceivedFromUpper
attr title  "packets received from higher layer, sum(packetBytes)"
scalar multi.router4.ppp[1].ppp 	passedUpPk:count 	16
attr interpolationmode  none
attr source  packetSentToUpper
attr title  "packets passed to higher layer, count"
scalar multi.router4.ppp[1].ppp 	passedUpPk:sum(packetBytes) 	840
attr interpolationmode  none
attr source  packetSentToUpper
attr title  "packets passed to higher layer, sum(packetBytes)"
