version 2
run General-0-20180703-21:56:10-5086
attr configname General
attr datetime 20180703-21:56:10
attr experiment General
attr inifile omnetpp.ini
attr iterationvars ""
attr iterationvars2 $repetition=0
attr measurement ""
attr network multi
attr processid 5086
attr repetition 0
attr replication #0
attr resultdir results
attr runnumber 0
attr seedset 0
param **.cli*.numTcpApps 0
param **.cli*.sctpApp[*].typename "\"SCTPClient\""
param **.cli*.tcpApp[*].typename "\"TCPBasicClientApp\""
param **.cli1.numSctpApps 1
param **.cli1.sctpApp[0].connectAddress "\"10.1.3.1\""
param **.cli1.sctpApp[0].connectPort 6666
param **.cli1.sctpApp[0].localAddress "\"10.1.1.1 10.2.1.1\""
param **.cli1.sctpApp[0].numRequestsPerSession 100000000
param **.cli1.sctpApp[0].outboundStreams 1
param **.cli1.sctpApp[0].primaryPath "\"10.1.3.1\""
param **.cli1.sctpApp[0].queueSize 100
param **.cli1.sctpApp[0].requestLength 1400
param **.cli1.sctpApp[0].startTime 1s
param **.cli1.sctpApp[0].stopTime 120s
param **.numUdpApps 0
param **.ppp[*].queue.frameCapacity 20
param **.ppp[*].queueType "\"DropTailQueue\""
param **.srv1.numSctpApps 1
param **.srv1.numTcpApps 0
param **.srv1.sctpApp[*].typename "\"SCTPServer\""
param **.srv1.sctpApp[0].bytesToPush 0
param **.srv1.sctpApp[0].localAddress "\"10.1.3.1 10.2.3.1\""
param **.srv1.sctpApp[0].localPort 6666
param **.srv1.sctpApp[0].numPacketsToReceivePerClient 0
param **.srv1.sctpApp[0].numPacketsToSendPerClient 0
param **.srv1.sctpApp[0].outboundStreams 1
param **.srv1.sctpApp[0].queueSize 0
param **.srv1.sctpApp[0].readingInterval 0
param **.srv1.tcpApp[*].typename "\"TCPSinkApp\""
param **.udpApp[*].typename "\"UDPApp\""
param multi.testTimeout 0s
param multi.testing false

vector 11  multi.cli1.ppp[0].queue  queueLength:vector  ETV
attr interpolationmode  sample-hold
attr title  "queue length, vector"
vector 12  multi.cli1.ppp[0].ppp  txState:vector  ETV
attr interpolationmode  sample-hold
attr title  "tx state, vector"
vector 22  multi.cli1.ppp[1].queue  queueLength:vector  ETV
attr interpolationmode  sample-hold
attr title  "queue length, vector"
vector 23  multi.cli1.ppp[1].ppp  txState:vector  ETV
attr interpolationmode  sample-hold
attr title  "tx state, vector"
vector 38  multi.srv1.ppp[0].queue  queueLength:vector  ETV
attr interpolationmode  sample-hold
attr title  "queue length, vector"
vector 39  multi.srv1.ppp[0].ppp  txState:vector  ETV
attr interpolationmode  sample-hold
attr title  "tx state, vector"
vector 49  multi.srv1.ppp[1].queue  queueLength:vector  ETV
attr interpolationmode  sample-hold
attr title  "queue length, vector"
vector 50  multi.srv1.ppp[1].ppp  txState:vector  ETV
attr interpolationmode  sample-hold
attr title  "tx state, vector"
vector 65  multi.router1.ppp[0].queue  queueLength:vector  ETV
attr interpolationmode  sample-hold
attr title  "queue length, vector"
vector 66  multi.router1.ppp[0].ppp  txState:vector  ETV
attr interpolationmode  sample-hold
attr title  "tx state, vector"
vector 76  multi.router1.ppp[1].queue  queueLength:vector  ETV
attr interpolationmode  sample-hold
attr title  "queue length, vector"
vector 77  multi.router1.ppp[1].ppp  txState:vector  ETV
attr interpolationmode  sample-hold
attr title  "tx state, vector"
vector 92  multi.router2.ppp[0].queue  queueLength:vector  ETV
attr interpolationmode  sample-hold
attr title  "queue length, vector"
vector 93  multi.router2.ppp[0].ppp  txState:vector  ETV
attr interpolationmode  sample-hold
attr title  "tx state, vector"
vector 103  multi.router2.ppp[1].queue  queueLength:vector  ETV
attr interpolationmode  sample-hold
attr title  "queue length, vector"
vector 104  multi.router2.ppp[1].ppp  txState:vector  ETV
attr interpolationmode  sample-hold
attr title  "tx state, vector"
vector 119  multi.router3.ppp[0].queue  queueLength:vector  ETV
attr interpolationmode  sample-hold
attr title  "queue length, vector"
vector 120  multi.router3.ppp[0].ppp  txState:vector  ETV
attr interpolationmode  sample-hold
attr title  "tx state, vector"
vector 130  multi.router3.ppp[1].queue  queueLength:vector  ETV
attr interpolationmode  sample-hold
attr title  "queue length, vector"
vector 131  multi.router3.ppp[1].ppp  txState:vector  ETV
attr interpolationmode  sample-hold
attr title  "tx state, vector"
vector 146  multi.router4.ppp[0].queue  queueLength:vector  ETV
attr interpolationmode  sample-hold
attr title  "queue length, vector"
vector 147  multi.router4.ppp[0].ppp  txState:vector  ETV
attr interpolationmode  sample-hold
attr title  "tx state, vector"
vector 157  multi.router4.ppp[1].queue  queueLength:vector  ETV
attr interpolationmode  sample-hold
attr title  "queue length, vector"
vector 158  multi.router4.ppp[1].ppp  txState:vector  ETV
attr interpolationmode  sample-hold
attr title  "tx state, vector"
vector 186  multi.srv1.sctp  "Throughput of Association 2"  ETV
vector 208  multi.cli1.sctp  "Throughput of Association 1"  ETV
vector 228  multi.cli1.sctp  "Fast Recovery State 1:10.1.3.1"  ETV
vector 8  multi.cli1.ppp[0].queue  rcvdPk:vector(packetBytes)  ETV
attr interpolationmode  none
attr title  "received packets, vector(packetBytes)"
vector 10  multi.cli1.ppp[0].queue  queueingTime:vector  ETV
attr interpolationmode  none
attr title  "queueing time, vector"
vector 17  multi.cli1.ppp[0].ppp  rcvdPkFromHL:vector(packetBytes)  ETV
attr interpolationmode  none
attr source  packetReceivedFromUpper
attr title  "packets received from higher layer, vector(packetBytes)"
vector 13  multi.cli1.ppp[0].ppp  txPk:vector(packetBytes)  ETV
attr interpolationmode  none
attr source  packetSentToLower
attr title  "packets transmitted, vector(packetBytes)"
vector 68  multi.router1.ppp[0].ppp  rxPkOk:vector(packetBytes)  ETV
attr interpolationmode  none
attr source  rxPkOk
attr title  "packets received OK, vector(packetBytes)"
vector 72  multi.router1.ppp[0].ppp  passedUpPk:vector(packetBytes)  ETV
attr interpolationmode  none
attr source  packetSentToUpper
attr title  "packets passed to higher layer, vector(packetBytes)"
vector 73  multi.router1.ppp[1].queue  rcvdPk:vector(packetBytes)  ETV
attr interpolationmode  none
attr title  "received packets, vector(packetBytes)"
vector 75  multi.router1.ppp[1].queue  queueingTime:vector  ETV
attr interpolationmode  none
attr title  "queueing time, vector"
vector 82  multi.router1.ppp[1].ppp  rcvdPkFromHL:vector(packetBytes)  ETV
attr interpolationmode  none
attr source  packetReceivedFromUpper
attr title  "packets received from higher layer, vector(packetBytes)"
vector 78  multi.router1.ppp[1].ppp  txPk:vector(packetBytes)  ETV
attr interpolationmode  none
attr source  packetSentToLower
attr title  "packets transmitted, vector(packetBytes)"
vector 95  multi.router2.ppp[0].ppp  rxPkOk:vector(packetBytes)  ETV
attr interpolationmode  none
attr source  rxPkOk
attr title  "packets received OK, vector(packetBytes)"
vector 99  multi.router2.ppp[0].ppp  passedUpPk:vector(packetBytes)  ETV
attr interpolationmode  none
attr source  packetSentToUpper
attr title  "packets passed to higher layer, vector(packetBytes)"
vector 100  multi.router2.ppp[1].queue  rcvdPk:vector(packetBytes)  ETV
attr interpolationmode  none
attr title  "received packets, vector(packetBytes)"
vector 102  multi.router2.ppp[1].queue  queueingTime:vector  ETV
attr interpolationmode  none
attr title  "queueing time, vector"
vector 109  multi.router2.ppp[1].ppp  rcvdPkFromHL:vector(packetBytes)  ETV
attr interpolationmode  none
attr source  packetReceivedFromUpper
attr title  "packets received from higher layer, vector(packetBytes)"
vector 105  multi.router2.ppp[1].ppp  txPk:vector(packetBytes)  ETV
attr interpolationmode  none
attr source  packetSentToLower
attr title  "packets transmitted, vector(packetBytes)"
vector 41  multi.srv1.ppp[0].ppp  rxPkOk:vector(packetBytes)  ETV
attr interpolationmode  none
attr source  rxPkOk
attr title  "packets received OK, vector(packetBytes)"
vector 45  multi.srv1.ppp[0].ppp  passedUpPk:vector(packetBytes)  ETV
attr interpolationmode  none
attr source  packetSentToUpper
attr title  "packets passed to higher layer, vector(packetBytes)"
vector 257  multi.srv1.sctp  "Throughput of Association 2"  ETV
vector 183  multi.srv1.sctp  "Peer Rwnd 2"  ETV
vector 277  multi.srv1.sctp  "Fast Recovery State 3:10.1.1.1"  ETV
vector 304  multi.srv1.sctp  "Fast Recovery State 3:10.2.1.1"  ETV
vector 35  multi.srv1.ppp[0].queue  rcvdPk:vector(packetBytes)  ETV
attr interpolationmode  none
attr title  "received packets, vector(packetBytes)"
vector 37  multi.srv1.ppp[0].queue  queueingTime:vector  ETV
attr interpolationmode  none
attr title  "queueing time, vector"
vector 44  multi.srv1.ppp[0].ppp  rcvdPkFromHL:vector(packetBytes)  ETV
attr interpolationmode  none
attr source  packetReceivedFromUpper
attr title  "packets received from higher layer, vector(packetBytes)"
vector 40  multi.srv1.ppp[0].ppp  txPk:vector(packetBytes)  ETV
attr interpolationmode  none
attr source  packetSentToLower
attr title  "packets transmitted, vector(packetBytes)"
vector 106  multi.router2.ppp[1].ppp  rxPkOk:vector(packetBytes)  ETV
attr interpolationmode  none
attr source  rxPkOk
attr title  "packets received OK, vector(packetBytes)"
vector 110  multi.router2.ppp[1].ppp  passedUpPk:vector(packetBytes)  ETV
attr interpolationmode  none
attr source  packetSentToUpper
attr title  "packets passed to higher layer, vector(packetBytes)"
vector 89  multi.router2.ppp[0].queue  rcvdPk:vector(packetBytes)  ETV
attr interpolationmode  none
attr title  "received packets, vector(packetBytes)"
vector 91  multi.router2.ppp[0].queue  queueingTime:vector  ETV
attr interpolationmode  none
attr title  "queueing time, vector"
vector 98  multi.router2.ppp[0].ppp  rcvdPkFromHL:vector(packetBytes)  ETV
attr interpolationmode  none
attr source  packetReceivedFromUpper
attr title  "packets received from higher layer, vector(packetBytes)"
vector 94  multi.router2.ppp[0].ppp  txPk:vector(packetBytes)  ETV
attr interpolationmode  none
attr source  packetSentToLower
attr title  "packets transmitted, vector(packetBytes)"
vector 79  multi.router1.ppp[1].ppp  rxPkOk:vector(packetBytes)  ETV
attr interpolationmode  none
attr source  rxPkOk
attr title  "packets received OK, vector(packetBytes)"
vector 83  multi.router1.ppp[1].ppp  passedUpPk:vector(packetBytes)  ETV
attr interpolationmode  none
attr source  packetSentToUpper
attr title  "packets passed to higher layer, vector(packetBytes)"
vector 62  multi.router1.ppp[0].queue  rcvdPk:vector(packetBytes)  ETV
attr interpolationmode  none
attr title  "received packets, vector(packetBytes)"
vector 64  multi.router1.ppp[0].queue  queueingTime:vector  ETV
attr interpolationmode  none
attr title  "queueing time, vector"
vector 71  multi.router1.ppp[0].ppp  rcvdPkFromHL:vector(packetBytes)  ETV
attr interpolationmode  none
attr source  packetReceivedFromUpper
attr title  "packets received from higher layer, vector(packetBytes)"
vector 67  multi.router1.ppp[0].ppp  txPk:vector(packetBytes)  ETV
attr interpolationmode  none
attr source  packetSentToLower
attr title  "packets transmitted, vector(packetBytes)"
vector 14  multi.cli1.ppp[0].ppp  rxPkOk:vector(packetBytes)  ETV
attr interpolationmode  none
attr source  rxPkOk
attr title  "packets received OK, vector(packetBytes)"
vector 18  multi.cli1.ppp[0].ppp  passedUpPk:vector(packetBytes)  ETV
attr interpolationmode  none
attr source  packetSentToUpper
attr title  "packets passed to higher layer, vector(packetBytes)"
vector 205  multi.cli1.sctp  "Peer Rwnd 1"  ETV
vector 331  multi.cli1.sctp  "Fast Recovery State 1:10.2.3.1"  ETV
vector 260  multi.srv1.sctp  "Slow Start Threshold 3:10.1.1.1"  ETV
vector 261  multi.srv1.sctp  "Congestion Window 3:10.1.1.1"  ETV
vector 262  multi.srv1.sctp  "Bandwidth 3:10.1.1.1"  ETV
vector 258  multi.srv1.sctp  "RTO 3:10.1.1.1"  ETV
vector 287  multi.srv1.sctp  "Slow Start Threshold 3:10.2.1.1"  ETV
vector 288  multi.srv1.sctp  "Congestion Window 3:10.2.1.1"  ETV
vector 289  multi.srv1.sctp  "Bandwidth 3:10.2.1.1"  ETV
vector 292  multi.srv1.sctp  "HB Sent 3:10.2.1.1"  ETV
vector 285  multi.srv1.sctp  "RTO 3:10.2.1.1"  ETV
vector 46  multi.srv1.ppp[1].queue  rcvdPk:vector(packetBytes)  ETV
attr interpolationmode  none
attr title  "received packets, vector(packetBytes)"
vector 48  multi.srv1.ppp[1].queue  queueingTime:vector  ETV
attr interpolationmode  none
attr title  "queueing time, vector"
vector 55  multi.srv1.ppp[1].ppp  rcvdPkFromHL:vector(packetBytes)  ETV
attr interpolationmode  none
attr source  packetReceivedFromUpper
attr title  "packets received from higher layer, vector(packetBytes)"
vector 51  multi.srv1.ppp[1].ppp  txPk:vector(packetBytes)  ETV
attr interpolationmode  none
attr source  packetSentToLower
attr title  "packets transmitted, vector(packetBytes)"
vector 160  multi.router4.ppp[1].ppp  rxPkOk:vector(packetBytes)  ETV
attr interpolationmode  none
attr source  rxPkOk
attr title  "packets received OK, vector(packetBytes)"
vector 164  multi.router4.ppp[1].ppp  passedUpPk:vector(packetBytes)  ETV
attr interpolationmode  none
attr source  packetSentToUpper
attr title  "packets passed to higher layer, vector(packetBytes)"
vector 143  multi.router4.ppp[0].queue  rcvdPk:vector(packetBytes)  ETV
attr interpolationmode  none
attr title  "received packets, vector(packetBytes)"
vector 145  multi.router4.ppp[0].queue  queueingTime:vector  ETV
attr interpolationmode  none
attr title  "queueing time, vector"
vector 152  multi.router4.ppp[0].ppp  rcvdPkFromHL:vector(packetBytes)  ETV
attr interpolationmode  none
attr source  packetReceivedFromUpper
attr title  "packets received from higher layer, vector(packetBytes)"
vector 148  multi.router4.ppp[0].ppp  txPk:vector(packetBytes)  ETV
attr interpolationmode  none
attr source  packetSentToLower
attr title  "packets transmitted, vector(packetBytes)"
vector 133  multi.router3.ppp[1].ppp  rxPkOk:vector(packetBytes)  ETV
attr interpolationmode  none
attr source  rxPkOk
attr title  "packets received OK, vector(packetBytes)"
vector 137  multi.router3.ppp[1].ppp  passedUpPk:vector(packetBytes)  ETV
attr interpolationmode  none
attr source  packetSentToUpper
attr title  "packets passed to higher layer, vector(packetBytes)"
vector 116  multi.router3.ppp[0].queue  rcvdPk:vector(packetBytes)  ETV
attr interpolationmode  none
attr title  "received packets, vector(packetBytes)"
vector 118  multi.router3.ppp[0].queue  queueingTime:vector  ETV
attr interpolationmode  none
attr title  "queueing time, vector"
vector 125  multi.router3.ppp[0].ppp  rcvdPkFromHL:vector(packetBytes)  ETV
attr interpolationmode  none
attr source  packetReceivedFromUpper
attr title  "packets received from higher layer, vector(packetBytes)"
vector 121  multi.router3.ppp[0].ppp  txPk:vector(packetBytes)  ETV
attr interpolationmode  none
attr source  packetSentToLower
attr title  "packets transmitted, vector(packetBytes)"
vector 25  multi.cli1.ppp[1].ppp  rxPkOk:vector(packetBytes)  ETV
attr interpolationmode  none
attr source  rxPkOk
attr title  "packets received OK, vector(packetBytes)"
vector 29  multi.cli1.ppp[1].ppp  passedUpPk:vector(packetBytes)  ETV
attr interpolationmode  none
attr source  packetSentToUpper
attr title  "packets passed to higher layer, vector(packetBytes)"
vector 320  multi.cli1.sctp  "HB ACK Sent 1:10.2.3.1"  ETV
vector 321  multi.cli1.sctp  "HB Received 1:10.2.3.1"  ETV
vector 19  multi.cli1.ppp[1].queue  rcvdPk:vector(packetBytes)  ETV
attr interpolationmode  none
attr title  "received packets, vector(packetBytes)"
vector 21  multi.cli1.ppp[1].queue  queueingTime:vector  ETV
attr interpolationmode  none
attr title  "queueing time, vector"
vector 28  multi.cli1.ppp[1].ppp  rcvdPkFromHL:vector(packetBytes)  ETV
attr interpolationmode  none
attr source  packetReceivedFromUpper
attr title  "packets received from higher layer, vector(packetBytes)"
vector 24  multi.cli1.ppp[1].ppp  txPk:vector(packetBytes)  ETV
attr interpolationmode  none
attr source  packetSentToLower
attr title  "packets transmitted, vector(packetBytes)"
vector 211  multi.cli1.sctp  "Slow Start Threshold 1:10.1.3.1"  ETV
vector 212  multi.cli1.sctp  "Congestion Window 1:10.1.3.1"  ETV
vector 213  multi.cli1.sctp  "Bandwidth 1:10.1.3.1"  ETV
vector 209  multi.cli1.sctp  "RTO 1:10.1.3.1"  ETV
vector 314  multi.cli1.sctp  "Slow Start Threshold 1:10.2.3.1"  ETV
vector 315  multi.cli1.sctp  "Congestion Window 1:10.2.3.1"  ETV
vector 316  multi.cli1.sctp  "Bandwidth 1:10.2.3.1"  ETV
vector 319  multi.cli1.sctp  "HB Sent 1:10.2.3.1"  ETV
vector 312  multi.cli1.sctp  "RTO 1:10.2.3.1"  ETV
vector 1  multi.cli1.sctpApp[0]  sentPk:vector(packetBytes)  ETV
attr interpolationmode  none
attr source  sentPk
attr title  "packets sent, vector(packetBytes)"
vector 348  multi.cli1.sctp  "SendQueue of Association 1"  ETV
vector 214  multi.cli1.sctp  "TSN Sent 1:10.1.3.1"  ETV
vector 221  multi.cli1.sctp  "Outstanding Bytes 1:10.1.3.1"  ETV
vector 193  multi.cli1.sctp  "Outstanding Bytes 1:Total"  ETV
vector 220  multi.cli1.sctp  "Queued Sent Bytes 1:10.1.3.1"  ETV
vector 192  multi.cli1.sctp  "Queued Sent Bytes 1:Total"  ETV
vector 122  multi.router3.ppp[0].ppp  rxPkOk:vector(packetBytes)  ETV
attr interpolationmode  none
attr source  rxPkOk
attr title  "packets received OK, vector(packetBytes)"
vector 126  multi.router3.ppp[0].ppp  passedUpPk:vector(packetBytes)  ETV
attr interpolationmode  none
attr source  packetSentToUpper
attr title  "packets passed to higher layer, vector(packetBytes)"
vector 127  multi.router3.ppp[1].queue  rcvdPk:vector(packetBytes)  ETV
attr interpolationmode  none
attr title  "received packets, vector(packetBytes)"
vector 129  multi.router3.ppp[1].queue  queueingTime:vector  ETV
attr interpolationmode  none
attr title  "queueing time, vector"
vector 136  multi.router3.ppp[1].ppp  rcvdPkFromHL:vector(packetBytes)  ETV
attr interpolationmode  none
attr source  packetReceivedFromUpper
attr title  "packets received from higher layer, vector(packetBytes)"
vector 132  multi.router3.ppp[1].ppp  txPk:vector(packetBytes)  ETV
attr interpolationmode  none
attr source  packetSentToLower
attr title  "packets transmitted, vector(packetBytes)"
vector 149  multi.router4.ppp[0].ppp  rxPkOk:vector(packetBytes)  ETV
attr interpolationmode  none
attr source  rxPkOk
attr title  "packets received OK, vector(packetBytes)"
vector 153  multi.router4.ppp[0].ppp  passedUpPk:vector(packetBytes)  ETV
attr interpolationmode  none
attr source  packetSentToUpper
attr title  "packets passed to higher layer, vector(packetBytes)"
vector 154  multi.router4.ppp[1].queue  rcvdPk:vector(packetBytes)  ETV
attr interpolationmode  none
attr title  "received packets, vector(packetBytes)"
vector 156  multi.router4.ppp[1].queue  queueingTime:vector  ETV
attr interpolationmode  none
attr title  "queueing time, vector"
vector 163  multi.router4.ppp[1].ppp  rcvdPkFromHL:vector(packetBytes)  ETV
attr interpolationmode  none
attr source  packetReceivedFromUpper
attr title  "packets received from higher layer, vector(packetBytes)"
vector 159  multi.router4.ppp[1].ppp  txPk:vector(packetBytes)  ETV
attr interpolationmode  none
attr source  packetSentToLower
attr title  "packets transmitted, vector(packetBytes)"
vector 52  multi.srv1.ppp[1].ppp  rxPkOk:vector(packetBytes)  ETV
attr interpolationmode  none
attr source  rxPkOk
attr title  "packets received OK, vector(packetBytes)"
vector 56  multi.srv1.ppp[1].ppp  passedUpPk:vector(packetBytes)  ETV
attr interpolationmode  none
attr source  packetSentToUpper
attr title  "packets passed to higher layer, vector(packetBytes)"
vector 295  multi.srv1.sctp  "HB ACK Received 3:10.2.1.1"  ETV
vector 286  multi.srv1.sctp  "RTT 3:10.2.1.1"  ETV
vector 293  multi.srv1.sctp  "HB ACK Sent 3:10.2.1.1"  ETV
vector 294  multi.srv1.sctp  "HB Received 3:10.2.1.1"  ETV
vector 322  multi.cli1.sctp  "HB ACK Received 1:10.2.3.1"  ETV
vector 313  multi.cli1.sctp  "RTT 1:10.2.3.1"  ETV
vector 264  multi.srv1.sctp  "TSN Received 3:10.1.1.1"  ETV
vector 339  multi.srv1.sctp  "Stream 0 Throughput"  ETV
vector 169  multi.srv1.sctp  "Queued Received Bytes 2:Total"  ETV
vector 165  multi.srv1.sctp  "Advertised Receiver Window 2"  ETV
vector 174  multi.srv1.sctp  "Number of Total Gap Blocks Stored 2"  ETV
vector 175  multi.srv1.sctp  "Number of Revokable Gap Blocks Stored 2"  ETV
vector 176  multi.srv1.sctp  "Number of Non-Revokable Gap Blocks Stored 2"  ETV
vector 177  multi.srv1.sctp  "Number of Duplicate TSNs Stored 2"  ETV
vector 181  multi.srv1.sctp  "Length of SACK Sent 2"  ETV
vector 178  multi.srv1.sctp  "Number of Revokable Gap Blocks Sent 2"  ETV
vector 179  multi.srv1.sctp  "Number of Non-Revokable Gap Blocks Sent 2"  ETV
vector 180  multi.srv1.sctp  "Number of Duplicate TSNs Sent 2"  ETV
vector 185  multi.srv1.sctp  "End to End Delay of Association 2"  ETV
vector 343  multi.srv1.sctpApp[0]  "App: Received Bytes of assoc 3"  ETV
vector 347  multi.cli1.sctp  "Number of Gap Blocks in Last SACK of Association 1"  ETV
vector 194  multi.cli1.sctp  "Number of Revokable Gap Blocks in SACK 1"  ETV
vector 195  multi.cli1.sctp  "Number of Non-Revokable Gap Blocks in SACK 1"  ETV
vector 231  multi.cli1.sctp  "TSN Acked CumAck 1:10.1.3.1"  ETV
vector 210  multi.cli1.sctp  "RTT 1:10.1.3.1"  ETV
vector 224  multi.cli1.sctp  "Number of Gap Acked Chunks in Last SACK 1:10.1.3.1"  ETV
vector 225  multi.cli1.sctp  "Number of Non-Revokable Gap Acked Chunks in Last SACK 1:10.1.3.1"  ETV
vector 226  multi.cli1.sctp  "Number of Gap Missed Chunks in Last SACK 1:10.1.3.1"  ETV
vector 327  multi.cli1.sctp  "Number of Gap Acked Chunks in Last SACK 1:10.2.3.1"  ETV
vector 328  multi.cli1.sctp  "Number of Non-Revokable Gap Acked Chunks in Last SACK 1:10.2.3.1"  ETV
vector 329  multi.cli1.sctp  "Number of Gap Missed Chunks in Last SACK 1:10.2.3.1"  ETV
vector 204  multi.cli1.sctp  "Arwnd in Last SACK 1"  ETV
vector 233  multi.cli1.sctp  "TSN PseudoCumAck 1:10.1.3.1"  ETV
vector 234  multi.cli1.sctp  "TSN RTXPseudoCumAck 1:10.1.3.1"  ETV
vector 227  multi.cli1.sctp  "Partial Bytes Acked 1:10.1.3.1"  ETV
vector 96  multi.router2.ppp[0].ppp  droppedPkBitError:vector(packetBytes)  ETV
attr interpolationmode  none
attr source  dropPkBitError
attr title  "packets dropped/bit error, vector(packetBytes)"
vector 232  multi.cli1.sctp  "TSN Acked GapAck 1:10.1.3.1"  ETV
vector 229  multi.cli1.sctp  "TSN Sent Fast RTX 1:10.1.3.1"  ETV
vector 80  multi.router1.ppp[1].ppp  droppedPkBitError:vector(packetBytes)  ETV
attr interpolationmode  none
attr source  dropPkBitError
attr title  "packets dropped/bit error, vector(packetBytes)"
vector 69  multi.router1.ppp[0].ppp  droppedPkBitError:vector(packetBytes)  ETV
attr interpolationmode  none
attr source  dropPkBitError
attr title  "packets dropped/bit error, vector(packetBytes)"
vector 323  multi.cli1.sctp  "Queued Sent Bytes 1:10.2.3.1"  ETV
vector 324  multi.cli1.sctp  "Outstanding Bytes 1:10.2.3.1"  ETV
vector 333  multi.cli1.sctp  "TSN Sent Timer-Based RTX 1:10.2.3.1"  ETV
vector 291  multi.srv1.sctp  "TSN Received 3:10.2.1.1"  ETV
vector 334  multi.cli1.sctp  "TSN Acked CumAck 1:10.2.3.1"  ETV
vector 335  multi.cli1.sctp  "TSN Acked GapAck 1:10.2.3.1"  ETV
vector 336  multi.cli1.sctp  "TSN PseudoCumAck 1:10.2.3.1"  ETV
vector 337  multi.cli1.sctp  "TSN RTXPseudoCumAck 1:10.2.3.1"  ETV
vector 330  multi.cli1.sctp  "Partial Bytes Acked 1:10.2.3.1"  ETV
vector 265  multi.srv1.sctp  "HB Sent 3:10.1.1.1"  ETV
vector 217  multi.cli1.sctp  "HB ACK Sent 1:10.1.3.1"  ETV
vector 218  multi.cli1.sctp  "HB Received 1:10.1.3.1"  ETV
vector 268  multi.srv1.sctp  "HB ACK Received 3:10.1.1.1"  ETV
vector 259  multi.srv1.sctp  "RTT 3:10.1.1.1"  ETV
vector 107  multi.router2.ppp[1].ppp  droppedPkBitError:vector(packetBytes)  ETV
attr interpolationmode  none
attr source  dropPkBitError
attr title  "packets dropped/bit error, vector(packetBytes)"
211	110	1.052736	65535
211	408	1.246016	65535
211	462	1.855072	65535
211	513	2.12944	65535
211	564	2.403808	65535
211	615	2.678176	65535
211	666	2.952544	65535
211	717	3.226912	65535
211	768	3.50128	65535
211	819	3.775648	65535
211	870	4.050016	65535
211	918	4.324384	65535
211	1045	5.222368	26170
211	1580	9.263008	26170
211	1817	10.160992	17880
211	2113	12.281056	17880
211	2381	13.927264	17880
211	2508	14.825248	17880
211	2900	18.14288	17880
211	3217	20.337824	17880
211	3547	21.909152	17880
211	3749	23.081504	17880
211	3980	24.652832	17880
211	4148	25.825184	17880
211	4379	27.396512	17880
211	4547	28.568864	17880
211	4891	30.817088348697	17880
211	5211	31.875776	17880
211	5269	32.350752	17880
211	5320	32.631552	17880
211	5368	32.90592	17880
211	5616	34.35264	17880
211	5876	36.528842205105	17880
211	6170	40.960722028781	17880
211	6370	42.903954028781	17880
211	6535	44.208466028781	17880
211	6911	45.854674028781	17880
211	7226	47.775250028781	17880
211	7578	49.970194028781	17880
211	7981	52.439506028781	17880
211	8493	55.258066028781	19980
211	8911	58.201234028781	19980
211	9173	60.471570028781	17880
211	9454	62.316754028781	17880
211	9851	64.586578028781	17880
211	10156	66.157906028781	17880
211	10320	67.605138028781	17880
211	10533	69.175954028781	17880
211	10815	70.822162028781	17880
211	11122	72.817618028781	17880
211	11376	74.663314028781	17880
211	11734	76.309522028781	17880
211	11946	77.756242028781	17880
211	12378	81.048658028781	17880
211	12425	81.323026028781	17880
211	12858	84.897874028781	17880
211	13046	85.446610028781	17880
211	13280	87.017938028781	17880
211	13624	89.287762028781	17880
211	13887	91.604132496677	17880
211	14157	92.776740496677	17880
211	14203	93.051108496677	17880
211	14260	93.532516496677	17880
211	14311	93.806884496677	17880
211	14683	95.453092496677	17880
211	15034	97.373668496677	17880
211	15393	99.568612496677	17880
211	15643	101.289700496677	17880
211	16007	103.684132496677	17880
211	16279	104.860004496677	17880
211	16586	108.063941769503	17880
211	16934	109.465508496677	17880
211	16981	109.739876496677	17880
211	17039	110.221284496677	17880
211	17090	110.495652496677	17880
211	17361	112.141860496677	17880
211	17673	114.062436496677	17880
211	17904	115.235300496677	17880
211	18239	117.629220496677	17880
211	18514	119.275428496677	17880
212	110	1.052736	8940
212	408	1.246016	10340
212	462	1.855072	14540
212	513	2.12944	18740
212	564	2.403808	22940
212	615	2.678176	27140
212	666	2.952544	31340
212	717	3.226912	35540
212	768	3.50128	39740
212	819	3.775648	43940
212	870	4.050016	48140
212	918	4.324384	52340
212	1045	5.222368	26170
212	1580	9.263008	30370
212	1817	10.160992	17880
212	2113	12.281056	22080
212	2381	13.927264	26550
212	2508	14.825248	17880
212	2900	18.14288	22080
212	3217	20.337824	17880
212	3547	21.909152	22080
212	3749	23.081504	17880
212	3980	24.652832	22080
212	4148	25.825184	17880
212	4379	27.396512	22080
212	4547	28.568864	17880
212	4891	30.817088348697	4470
212	5211	31.875776	8670
212	5269	32.350752	12870
212	5320	32.631552	17070
212	5368	32.90592	21270
212	5616	34.35264	17880
212	5876	36.528842205105	4470
212	6170	40.960722028781	4470
212	6370	42.903954028781	17880
212	6535	44.208466028781	22080
212	6911	45.854674028781	26550
212	7226	47.775250028781	31020
212	7578	49.970194028781	35490
212	7981	52.439506028781	39960
212	8493	55.258066028781	19980
212	8911	58.201234028781	24180
212	9173	60.471570028781	17880
212	9454	62.316754028781	22080
212	9851	64.586578028781	17880
212	10156	66.157906028781	22080
212	10320	67.605138028781	17880
212	10533	69.175954028781	22350
212	10815	70.822162028781	26820
212	11122	72.817618028781	17880
212	11376	74.663314028781	22080
212	11734	76.309522028781	26550
212	11946	77.756242028781	17880
212	12378	81.048658028781	22080
212	12425	81.323026028781	17880
212	12858	84.897874028781	22080
212	13046	85.446610028781	17880
212	13280	87.017938028781	22080
212	13624	89.287762028781	17880
212	13887	91.604132496677	4470
212	14157	92.776740496677	8670
212	14203	93.051108496677	12870
212	14260	93.532516496677	17070
212	14311	93.806884496677	21270
212	14683	95.453092496677	25740
212	15034	97.373668496677	30210
212	15393	99.568612496677	34680
212	15643	101.289700496677	17880
212	16007	103.684132496677	22080
212	16279	104.860004496677	17880
212	16586	108.063941769503	4470
212	16934	109.465508496677	8670
212	16981	109.739876496677	12870
212	17039	110.221284496677	17070
212	17090	110.495652496677	21270
212	17361	112.141860496677	25740
212	17673	114.062436496677	30210
212	17904	115.235300496677	17880
212	18239	117.629220496677	22350
212	18514	119.275428496677	26820
213	110	1.052736	0.3725
213	408	1.246016	6.6882276843467
213	462	1.855072	6.7470997679814
213	513	2.12944	6.3268062120189
213	564	2.403808	7.744767049291
213	615	2.678176	7.9472913616398
213	666	2.952544	9.1771595900439
213	717	3.226912	8.7001223990208
213	768	3.50128	9.7282741738066
213	819	3.775648	8.8821507984637
213	870	4.050016	9.7311501920356
213	918	4.324384	10.580149585607
213	1045	5.222368	4.3263349313936
213	1580	9.263008	2.6296649060525
213	1817	10.160992	1.5215726321164
213	2113	12.281056	1.798338491611
213	2381	13.927264	2.1560825077148
213	2508	14.825248	1.4629356897398
213	2900	18.14288	1.8985382631126
213	3217	20.337824	1.521054870268
213	3547	21.909152	1.8941408595694
213	3749	23.081504	1.6111010992972
213	3980	24.652832	1.9895476662462
213	4148	25.825184	1.5848253855699
213	4379	27.396512	1.9508747128468
213	4547	28.568864	1.5858093126386
213	4891	30.817088348697	0.39775760811532
213	5211	31.875776	0.77148958889482
213	5269	32.350752	1.184646539028
213	5320	32.631552	1.5712444771723
213	5368	32.90592	1.9578424153166
213	5616	34.35264	1.6744708746956
213	5876	36.528842205105	0.41717218852077
213	6170	40.960722028781	0.41717218852077
213	6370	42.903954028781	1.7519106407995
213	6535	44.208466028781	2.2168674698795
213	6911	45.854674028781	2.6321007237038
213	7226	47.775250028781	2.9621848739496
213	7578	49.970194028781	3.0544797314743
213	7981	52.439506028781	3.3060312732688
213	8493	55.258066028781	1.431334622824
213	8911	58.201234028781	1.6384333920585
213	9173	60.471570028781	1.2343803935105
213	9454	62.316754028781	1.5719777872704
213	9851	64.586578028781	1.344259830088
213	10156	66.157906028781	1.6600255619878
213	10320	67.605138028781	1.3743274404304
213	10533	69.175954028781	1.8309166871467
213	10815	70.822162028781	2.1890303623898
213	11122	72.817618028781	1.4459000485201
213	11376	74.663314028781	1.7604847711689
213	11734	76.309522028781	2.1163810282981
213	11946	77.756242028781	1.4164620137844
213	12378	81.048658028781	1.7998043690903
213	12425	81.323026028781	1.4574502771438
213	12858	84.897874028781	1.9282158763427
213	13046	85.446610028781	1.5614356824731
213	13280	87.017938028781	1.9861473419088
213	13624	89.287762028781	1.5776934615724
213	13887	91.604132496677	0.39599574769667
213	14157	92.776740496677	0.81538606225901
213	14203	93.051108496677	1.2103827706198
213	14260	93.532516496677	1.6053794789805
213	14311	93.806884496677	2.0003761873413
213	14683	95.453092496677	2.4264705882353
213	15034	97.373668496677	2.6953961456103
213	15393	99.568612496677	2.9570259208731
213	15643	101.289700496677	1.4353375612106
213	16007	103.684132496677	1.6766648948288
213	16279	104.860004496677	1.3654066437572
213	16586	108.063941769503	0.37064676616915
213	16934	109.465508496677	0.75162548764629
213	16981	109.739876496677	1.1157347204161
213	17039	110.221284496677	1.479843953186
213	17090	110.495652496677	1.8439531859558
213	17361	112.141860496677	2.258290928233
213	17673	114.062436496677	2.6000516395559
213	17904	115.235300496677	1.5040376850606
213	18239	117.629220496677	1.7996618085192
213	18514	119.275428496677	2.14337089427
209	110	1.052736	3
209	408	1.246016	1
209	462	1.855072	1.168388
209	513	2.12944	1.8518475
209	615	2.678176	1.9908445625
209	717	3.226912	2.354233492188
209	819	3.775648	2.862097680665
209	965	4.673632	3.541717001831
209	1085	5.496736	4.548150525038
209	1203	6.594208	5.754752820738
209	1331	7.96656	6.98849355164
209	1728	9.612256	5.829513482807
209	1963	11.258464	5.331668516296
209	2208	12.829792	4.423557115892
209	2468	14.55088	3.783561392168
209	2613	16.198112	3.354003930137
209	2847	17.86096	3.52377645084
209	3097	19.43984	3.147028203984
209	3438	21.160928	2.812990803904
209	3709	22.807136	2.963366797479
209	4028	24.9272	2.776376750429
209	4228	26.37392	2.475822758601
209	4467	28.020128	2.248224348697
209	4739	30.489952	2.071027881302
209	4891	30.817088348697	4.142055762604
209	5269	32.350752	2.232341078285
209	5488	33.803904	2.176202205105
209	5753	35.175744	2.007523911838
209	5876	36.528842205105	4.015047823676
209	6170	40.960722028781	8.030095647352
209	6289	41.791378028781	2.285675143617
209	6481	43.934098028781	2.248190541233
209	6823	45.305938028781	2.139982586585
209	7050	46.677778028781	2.353630660515
209	7277	48.049618028781	2.780394250891
209	7534	49.695826028781	3.033588536737
209	7805	51.342034028781	3.164965645048
209	8193	53.262610028781	3.829622695972
209	8453	54.983698028781	4.307534176389
209	8705	56.904274028781	4.566059142402
209	9006	58.749970028781	4.12506778293
209	9213	60.745938028781	3.929966835059
209	9505	62.591122028781	3.548350374422
209	9851	64.586578028781	3.584772622928
209	10204	66.507154028781	3.358734579045
209	10407	68.153874028781	3.628450657151
209	10638	69.724690028781	3.153323848133
209	10917	71.370898028781	2.876884509462
209	11162	73.091986028781	2.741252552538
209	11528	74.937682028781	2.451883938539
209	11785	76.583890028781	2.318708412524
209	12045	78.579346028781	2.294536335687
209	12286	80.500434028781	2.555503097186
209	12545	82.146130028781	2.681663062633
209	12784	84.341586028781	2.71450156925
209	13126	85.995346028781	2.685983665179
209	13375	87.566674028781	2.56623215272
209	13584	89.013394028781	2.316370467896
209	13827	90.933970028781	2.130709453398
209	13887	91.604132496677	4.261418906796
209	14157	92.776740496677	2.524210742214
209	14406	94.355620496677	2.247038377307
209	14734	95.727460496677	2.376927786986
209	14990	97.099300496677	2.439332718747
209	15261	98.745508496677	2.764164807752
209	15516	100.391716496677	3.259637715918
209	15749	102.112804496677	3.635760133281
209	16055	103.958500496677	3.203937272826
209	16325	105.683620496677	3.040558480876
209	16491	107.337892496677	3.357935696129
209	16586	108.063941769503	6.715871392258
209	16934	109.465508496677	3.354870116859
209	17185	111.044388496677	2.996927485814
209	17456	112.690596496677	2.852985808662
209	17720	114.411684496677	2.80505227651
209	18017	116.058404496677	3.048962012396
209	18239	117.629220496677	2.697825713683
209	18514	119.275428496677	2.516989464099
210	408	1.246016	0.19328
210	462	1.855072	0.802336
210	513	2.12944	1.076704
210	615	2.678176	0.823104
210	717	3.226912	1.097472
210	819	3.775648	1.37184
210	965	4.673632	1.721088
210	1085	5.496736	2.269824
210	1203	6.594208	2.81856
210	1331	7.96656	3.292928
210	1728	9.612256	1.645696
210	1963	11.258464	1.995456
210	2208	12.829792	1.571328
210	2468	14.55088	1.44672
210	2613	16.198112	1.647232
210	2847	17.86096	0.831168
210	3097	19.43984	1.57888
210	3438	21.160928	1.37184
210	3709	22.807136	0.897984
210	4028	24.9272	1.571328
210	4228	26.37392	1.44672
210	4467	28.020128	1.37184
210	4739	30.489952	1.372352
210	5269	32.350752	1.030144
210	5488	33.803904	1.172352
210	5753	35.175744	1.37184
210	6289	41.791378028781	0.830656
210	6481	43.934098028781	1.030144
210	6823	45.305938028781	1.37184
210	7050	46.677778028781	1.646208
210	7277	48.049618028781	1.920576
210	7534	49.695826028781	1.920576
210	7805	51.342034028781	1.920576
210	8193	53.262610028781	2.469312
210	8453	54.983698028781	2.544192
210	8705	56.904274028781	2.544192
210	9006	58.749970028781	1.571328
210	9213	60.745938028781	1.372352
210	9505	62.591122028781	1.570816
210	9851	64.586578028781	1.172352
210	10204	66.507154028781	1.37184
210	10407	68.153874028781	0.823104
210	10638	69.724690028781	1.570816
210	10917	71.370898028781	1.646208
210	11162	73.091986028781	1.721088
210	11528	74.937682028781	1.571328
210	11785	76.583890028781	1.646208
210	12045	78.579346028781	1.721088
210	12286	80.500434028781	1.097984
210	12545	82.146130028781	1.097472
210	12784	84.341586028781	1.097984
210	13126	85.995346028781	1.097472
210	13375	87.566674028781	1.571328
210	13584	89.013394028781	1.44672
210	13827	90.933970028781	1.37184
210	14157	92.776740496677	0.755776
210	14406	94.355620496677	1.304512
210	14734	95.727460496677	1.646208
210	14990	97.099300496677	1.646208
210	15261	98.745508496677	1.920576
210	15516	100.391716496677	2.194944
210	15749	102.112804496677	2.269824
210	16055	103.958500496677	1.571328
210	16325	105.683620496677	1.375872
210	16491	107.337892496677	0.831168
210	16934	109.465508496677	0.982462727174
210	17185	111.044388496677	1.304512
210	17456	112.690596496677	1.646208
210	17720	114.411684496677	1.721088
210	18017	116.058404496677	1.995968
210	18239	117.629220496677	1.570816
210	18514	119.275428496677	1.646208
214	114	1.052736	1000
214	118	1.052736	1001
214	118	1.052736	1002
214	118	1.052736	1003
214	121	1.052736	1004
214	121	1.052736	1005
214	121	1.052736	1006
214	408	1.246016	1007
214	408	1.246016	1008
214	408	1.246016	1009
214	462	1.855072	1010
214	462	1.855072	1011
214	462	1.855072	1012
214	462	1.855072	1013
214	462	1.855072	1014
214	462	1.855072	1015
214	513	2.12944	1016
214	513	2.12944	1017
214	513	2.12944	1018
214	513	2.12944	1019
214	513	2.12944	1020
214	513	2.12944	1021
214	564	2.403808	1022
214	564	2.403808	1023
214	564	2.403808	1024
214	564	2.403808	1025
214	564	2.403808	1026
214	564	2.403808	1027
214	615	2.678176	1028
214	615	2.678176	1029
214	615	2.678176	1030
214	615	2.678176	1031
214	615	2.678176	1032
214	615	2.678176	1033
214	666	2.952544	1034
214	666	2.952544	1035
214	666	2.952544	1036
214	666	2.952544	1037
214	666	2.952544	1038
214	666	2.952544	1039
214	717	3.226912	1040
214	717	3.226912	1041
214	717	3.226912	1042
214	717	3.226912	1043
214	717	3.226912	1044
214	717	3.226912	1045
214	768	3.50128	1046
214	768	3.50128	1047
214	768	3.50128	1048
214	768	3.50128	1049
214	768	3.50128	1050
214	768	3.50128	1051
214	819	3.775648	1052
214	819	3.775648	1053
214	819	3.775648	1054
214	819	3.775648	1055
214	819	3.775648	1056
214	819	3.775648	1057
214	870	4.050016	1058
214	870	4.050016	1059
214	870	4.050016	1060
214	870	4.050016	1061
214	870	4.050016	1062
214	870	4.050016	1063
214	918	4.324384	1064
214	918	4.324384	1065
214	918	4.324384	1066
214	918	4.324384	1067
214	918	4.324384	1068
214	918	4.324384	1069
214	965	4.673632	1070
214	965	4.673632	1071
214	965	4.673632	1072
214	1005	4.948	1073
214	1005	4.948	1074
214	1005	4.948	1075
214	1331	7.96656	1076
214	1331	7.96656	1077
214	1331	7.96656	1078
214	1331	7.96656	1079
214	1331	7.96656	1080
214	1331	7.96656	1081
214	1331	7.96656	1082
214	1331	7.96656	1083
214	1331	7.96656	1084
214	1527	8.98864	1085
214	1527	8.98864	1086
214	1527	8.98864	1087
214	1527	8.98864	1088
214	1527	8.98864	1089
214	1527	8.98864	1090
214	1527	8.98864	1091
214	1527	8.98864	1092
214	1527	8.98864	1093
214	1527	8.98864	1094
214	1527	8.98864	1095
214	1527	8.98864	1096
214	1580	9.263008	1097
214	1580	9.263008	1098
214	1580	9.263008	1099
214	1580	9.263008	1100
214	1580	9.263008	1101
214	1580	9.263008	1102
214	1728	9.612256	1103
214	1728	9.612256	1104
214	1728	9.612256	1105
214	1773	9.886624	1106
214	1773	9.886624	1107
214	1773	9.886624	1108
214	1923	10.984096	1109
214	1923	10.984096	1110
214	1923	10.984096	1111
214	1963	11.258464	1112
214	1963	11.258464	1113
214	1963	11.258464	1114
214	2029	11.8072	1115
214	2029	11.8072	1116
214	2029	11.8072	1117
214	2029	11.8072	1118
214	2029	11.8072	1119
214	2029	11.8072	1120
214	2113	12.281056	1121
214	2113	12.281056	1122
214	2113	12.281056	1123
214	2113	12.281056	1124
214	2113	12.281056	1125
214	2113	12.281056	1126
214	2164	12.555424	1127
214	2164	12.555424	1128
214	2164	12.555424	1129
214	2208	12.829792	1130
214	2208	12.829792	1131
214	2208	12.829792	1132
214	2252	13.10416	1133
214	2252	13.10416	1134
214	2252	13.10416	1135
214	2296	13.378528	1136
214	2296	13.378528	1137
214	2296	13.378528	1138
214	2340	13.652896	1139
214	2340	13.652896	1140
214	2340	13.652896	1141
214	2381	13.927264	1142
214	2381	13.927264	1143
214	2381	13.927264	1144
214	2381	13.927264	1145
214	2381	13.927264	1146
214	2381	13.927264	1147
214	2428	14.276512	1148
214	2428	14.276512	1149
214	2428	14.276512	1150
214	2468	14.55088	1151
214	2468	14.55088	1152
214	2468	14.55088	1153
214	2613	16.198112	1154
214	2613	16.198112	1155
214	2613	16.198112	1156
214	2613	16.198112	1157
214	2613	16.198112	1158
214	2613	16.198112	1159
214	2668	16.471968	1160
214	2668	16.471968	1161
214	2668	16.471968	1162
214	2715	17.029792	1163
214	2715	17.029792	1164
214	2715	17.029792	1165
214	2797	17.586592	1166
214	2797	17.586592	1167
214	2797	17.586592	1168
214	2797	17.586592	1169
214	2797	17.586592	1170
214	2797	17.586592	1171
214	2847	17.86096	1172
214	2847	17.86096	1173
214	2847	17.86096	1174
214	2900	18.14288	1175
214	2900	18.14288	1176
214	2900	18.14288	1177
214	2900	18.14288	1178
214	2900	18.14288	1179
214	2900	18.14288	1180
214	2947	18.417248	1181
214	2947	18.417248	1182
214	2947	18.417248	1183
214	2991	18.691616	1184
214	2991	18.691616	1185
214	2991	18.691616	1186
214	3056	19.165472	1187
214	3056	19.165472	1188
214	3056	19.165472	1189
214	3097	19.43984	1190
214	3097	19.43984	1191
214	3097	19.43984	1192
214	3137	19.789088	1193
214	3137	19.789088	1194
214	3137	19.789088	1195
214	3177	20.063456	1196
214	3177	20.063456	1197
214	3177	20.063456	1198
214	3257	20.612192	1199
214	3257	20.612192	1200
214	3257	20.612192	1201
214	3398	20.88656	1202
214	3398	20.88656	1203
214	3398	20.88656	1204
214	3438	21.160928	1205
214	3438	21.160928	1206
214	3438	21.160928	1207
214	3476	21.435296	1208
214	3476	21.435296	1209
214	3476	21.435296	1210
214	3547	21.909152	1211
214	3547	21.909152	1212
214	3547	21.909152	1213
214	3547	21.909152	1214
214	3547	21.909152	1215
214	3547	21.909152	1216
214	3598	22.18352	1217
214	3598	22.18352	1218
214	3598	22.18352	1219
214	3662	22.532768	1220
214	3662	22.532768	1221
214	3662	22.532768	1222
214	3662	22.532768	1223
214	3662	22.532768	1224
214	3662	22.532768	1225
214	3709	22.807136	1226
214	3709	22.807136	1227
214	3709	22.807136	1228
214	3789	23.355872	1229
214	3789	23.355872	1230
214	3789	23.355872	1231
214	3829	23.63024	1232
214	3829	23.63024	1233
214	3829	23.63024	1234
214	3869	23.904608	1235
214	3869	23.904608	1236
214	3869	23.904608	1237
214	3909	24.178976	1238
214	3909	24.178976	1239
214	3909	24.178976	1240
214	3980	24.652832	1241
214	3980	24.652832	1242
214	3980	24.652832	1243
214	3980	24.652832	1244
214	3980	24.652832	1245
214	3980	24.652832	1246
214	4028	24.9272	1247
214	4028	24.9272	1248
214	4028	24.9272	1249
214	4068	25.276448	1250
214	4068	25.276448	1251
214	4068	25.276448	1252
214	4108	25.550816	1253
214	4108	25.550816	1254
214	4108	25.550816	1255
214	4188	26.099552	1256
214	4188	26.099552	1257
214	4188	26.099552	1258
214	4228	26.37392	1259
214	4228	26.37392	1260
214	4228	26.37392	1261
214	4268	26.648288	1262
214	4268	26.648288	1263
214	4268	26.648288	1264
214	4308	26.922656	1265
214	4308	26.922656	1266
214	4308	26.922656	1267
214	4379	27.396512	1268
214	4379	27.396512	1269
214	4379	27.396512	1270
214	4379	27.396512	1271
214	4379	27.396512	1272
214	4379	27.396512	1273
214	4427	27.67088	1274
214	4427	27.67088	1275
214	4427	27.67088	1276
214	4467	28.020128	1277
214	4467	28.020128	1278
214	4467	28.020128	1279
214	4507	28.294496	1280
214	4507	28.294496	1281
214	4507	28.294496	1282
214	4587	28.843232	1283
214	4587	28.843232	1284
214	4587	28.843232	1285
214	4627	29.1176	1286
214	4627	29.1176	1287
214	4627	29.1176	1288
214	4667	29.391968	1289
214	4667	29.391968	1290
214	4667	29.391968	1291
214	4739	30.489952	1292
214	4739	30.489952	1293
214	4739	30.489952	1294
214	4739	30.489952	1295
214	4739	30.489952	1296
214	4739	30.489952	1297
214	4786	30.76432	1298
214	4786	30.76432	1299
214	4786	30.76432	1300
214	5045	31.320608	1301
214	5045	31.320608	1302
214	5045	31.320608	1303
214	5045	31.320608	1304
214	5045	31.320608	1305
214	5045	31.320608	1306
214	5211	31.875776	1307
214	5211	31.875776	1308
214	5211	31.875776	1309
214	5211	31.875776	1310
214	5211	31.875776	1311
214	5211	31.875776	1312
214	5269	32.350752	1313
214	5269	32.350752	1314
214	5269	32.350752	1315
214	5269	32.350752	1316
214	5269	32.350752	1317
214	5269	32.350752	1318
214	5320	32.631552	1319
214	5320	32.631552	1320
214	5320	32.631552	1321
214	5320	32.631552	1322
214	5320	32.631552	1323
214	5320	32.631552	1324
214	5368	32.90592	1325
214	5368	32.90592	1326
214	5368	32.90592	1327
214	5368	32.90592	1328
214	5368	32.90592	1329
214	5368	32.90592	1330
214	5441	33.529536	1331
214	5441	33.529536	1332
214	5441	33.529536	1333
214	5441	33.529536	1334
214	5441	33.529536	1335
214	5441	33.529536	1336
214	5488	33.803904	1337
214	5488	33.803904	1338
214	5488	33.803904	1339
214	5616	34.35264	1340
214	5616	34.35264	1341
214	5616	34.35264	1342
214	5663	34.627008	1343
214	5663	34.627008	1344
214	5663	34.627008	1345
214	5703	34.901376	1346
214	5703	34.901376	1347
214	5703	34.901376	1348
214	5753	35.175744	1349
214	5753	35.175744	1350
214	5753	35.175744	1351
214	5796	35.728	1352
214	5796	35.728	1353
214	5796	35.728	1354
214	5836	36.002368	1355
214	5836	36.002368	1356
214	5836	36.002368	1357
214	6037	36.945674205105	1358
214	6037	36.945674205105	1359
214	6037	36.945674205105	1360
214	6037	36.945674205105	1361
214	6037	36.945674205105	1362
214	6037	36.945674205105	1363
214	6170	40.960722028781	1364
214	6170	40.960722028781	1365
214	6170	40.960722028781	1366
214	6170	40.960722028781	1367
214	6170	40.960722028781	1368
214	6170	40.960722028781	1369
214	6289	41.791378028781	1370
214	6289	41.791378028781	1371
214	6289	41.791378028781	1372
214	6330	42.347666028781	1373
214	6330	42.347666028781	1374
214	6330	42.347666028781	1375
214	6370	42.903954028781	1376
214	6370	42.903954028781	1377
214	6370	42.903954028781	1378
214	6370	42.903954028781	1379
214	6370	42.903954028781	1380
214	6370	42.903954028781	1381
214	6370	42.903954028781	1382
214	6370	42.903954028781	1383
214	6370	42.903954028781	1384
214	6481	43.934098028781	1385
214	6481	43.934098028781	1386
214	6481	43.934098028781	1387
214	6481	43.934098028781	1388
214	6481	43.934098028781	1389
214	6481	43.934098028781	1390
214	6481	43.934098028781	1391
214	6481	43.934098028781	1392
214	6481	43.934098028781	1393
214	6535	44.208466028781	1394
214	6535	44.208466028781	1395
214	6535	44.208466028781	1396
214	6535	44.208466028781	1397
214	6535	44.208466028781	1398
214	6535	44.208466028781	1399
214	6586	44.482834028781	1400
214	6586	44.482834028781	1401
214	6586	44.482834028781	1402
214	6735	44.757202028781	1403
214	6735	44.757202028781	1404
214	6735	44.757202028781	1405
214	6779	45.031570028781	1406
214	6779	45.031570028781	1407
214	6779	45.031570028781	1408
214	6823	45.305938028781	1409
214	6823	45.305938028781	1410
214	6823	45.305938028781	1411
214	6867	45.580306028781	1412
214	6867	45.580306028781	1413
214	6867	45.580306028781	1414
214	6911	45.854674028781	1415
214	6911	45.854674028781	1416
214	6911	45.854674028781	1417
214	6911	45.854674028781	1418
214	6911	45.854674028781	1419
214	6911	45.854674028781	1420
214	6962	46.129042028781	1421
214	6962	46.129042028781	1422
214	6962	46.129042028781	1423
214	7006	46.403410028781	1424
214	7006	46.403410028781	1425
214	7006	46.403410028781	1426
214	7050	46.677778028781	1427
214	7050	46.677778028781	1428
214	7050	46.677778028781	1429
214	7094	46.952146028781	1430
214	7094	46.952146028781	1431
214	7094	46.952146028781	1432
214	7138	47.226514028781	1433
214	7138	47.226514028781	1434
214	7138	47.226514028781	1435
214	7182	47.500882028781	1436
214	7182	47.500882028781	1437
214	7182	47.500882028781	1438
214	7226	47.775250028781	1439
214	7226	47.775250028781	1440
214	7226	47.775250028781	1441
214	7226	47.775250028781	1442
214	7226	47.775250028781	1443
214	7226	47.775250028781	1444
214	7277	48.049618028781	1445
214	7277	48.049618028781	1446
214	7277	48.049618028781	1447
214	7321	48.323986028781	1448
214	7321	48.323986028781	1449
214	7321	48.323986028781	1450
214	7365	48.598354028781	1451
214	7365	48.598354028781	1452
214	7365	48.598354028781	1453
214	7409	48.872722028781	1454
214	7409	48.872722028781	1455
214	7409	48.872722028781	1456
214	7483	49.421458028781	1457
214	7483	49.421458028781	1458
214	7483	49.421458028781	1459
214	7483	49.421458028781	1460
214	7483	49.421458028781	1461
214	7483	49.421458028781	1462
214	7534	49.695826028781	1463
214	7534	49.695826028781	1464
214	7534	49.695826028781	1465
214	7578	49.970194028781	1466
214	7578	49.970194028781	1467
214	7578	49.970194028781	1468
214	7578	49.970194028781	1469
214	7578	49.970194028781	1470
214	7578	49.970194028781	1471
214	7629	50.244562028781	1472
214	7629	50.244562028781	1473
214	7629	50.244562028781	1474
214	7673	50.518930028781	1475
214	7673	50.518930028781	1476
214	7673	50.518930028781	1477
214	7717	50.793298028781	1478
214	7717	50.793298028781	1479
214	7717	50.793298028781	1480
214	7761	51.067666028781	1481
214	7761	51.067666028781	1482
214	7761	51.067666028781	1483
214	7805	51.342034028781	1484
214	7805	51.342034028781	1485
214	7805	51.342034028781	1486
214	7849	51.616402028781	1487
214	7849	51.616402028781	1488
214	7849	51.616402028781	1489
214	7893	51.890770028781	1490
214	7893	51.890770028781	1491
214	7893	51.890770028781	1492
214	7937	52.165138028781	1493
214	7937	52.165138028781	1494
214	7937	52.165138028781	1495
214	7981	52.439506028781	1496
214	7981	52.439506028781	1497
214	7981	52.439506028781	1498
214	7981	52.439506028781	1499
214	7981	52.439506028781	1500
214	7981	52.439506028781	1501
214	8193	53.262610028781	1502
214	8193	53.262610028781	1503
214	8193	53.262610028781	1504
214	8193	53.262610028781	1505
214	8193	53.262610028781	1506
214	8193	53.262610028781	1507
214	8193	53.262610028781	1508
214	8193	53.262610028781	1509
214	8193	53.262610028781	1510
214	8281	53.811346028781	1511
214	8281	53.811346028781	1512
214	8281	53.811346028781	1513
214	8281	53.811346028781	1514
214	8281	53.811346028781	1515
214	8281	53.811346028781	1516
214	8332	54.085714028781	1517
214	8332	54.085714028781	1518
214	8332	54.085714028781	1519
214	8373	54.360082028781	1520
214	8373	54.360082028781	1521
214	8373	54.360082028781	1522
214	8413	54.709330028781	1523
214	8413	54.709330028781	1524
214	8413	54.709330028781	1525
214	8453	54.983698028781	1526
214	8453	54.983698028781	1527
214	8453	54.983698028781	1528
214	8665	56.629906028781	1529
214	8665	56.629906028781	1530
214	8665	56.629906028781	1531
214	8705	56.904274028781	1532
214	8705	56.904274028781	1533
214	8705	56.904274028781	1534
214	8745	57.178642028781	1535
214	8745	57.178642028781	1536
214	8745	57.178642028781	1537
214	8854	57.726866028781	1538
214	8854	57.726866028781	1539
214	8854	57.726866028781	1540
214	8854	57.726866028781	1541
214	8854	57.726866028781	1542
214	8854	57.726866028781	1543
214	8911	58.201234028781	1544
214	8911	58.201234028781	1545
214	8911	58.201234028781	1546
214	8911	58.201234028781	1547
214	8911	58.201234028781	1548
214	8911	58.201234028781	1549
214	8962	58.475602028781	1550
214	8962	58.475602028781	1551
214	8962	58.475602028781	1552
214	9006	58.749970028781	1553
214	9006	58.749970028781	1554
214	9006	58.749970028781	1555
214	9047	59.024338028781	1556
214	9047	59.024338028781	1557
214	9047	59.024338028781	1558
214	9087	59.373586028781	1559
214	9087	59.373586028781	1560
214	9087	59.373586028781	1561
214	9127	59.647954028781	1562
214	9127	59.647954028781	1563
214	9127	59.647954028781	1564
214	9213	60.745938028781	1565
214	9213	60.745938028781	1566
214	9213	60.745938028781	1567
214	9253	61.020306028781	1568
214	9253	61.020306028781	1569
214	9253	61.020306028781	1570
214	9307	61.294162028781	1571
214	9307	61.294162028781	1572
214	9307	61.294162028781	1573
214	9385	61.842898028781	1574
214	9385	61.842898028781	1575
214	9385	61.842898028781	1576
214	9385	61.842898028781	1577
214	9385	61.842898028781	1578
214	9385	61.842898028781	1579
214	9454	62.316754028781	1580
214	9454	62.316754028781	1581
214	9454	62.316754028781	1582
214	9454	62.316754028781	1583
214	9454	62.316754028781	1584
214	9454	62.316754028781	1585
214	9505	62.591122028781	1586
214	9505	62.591122028781	1587
214	9505	62.591122028781	1588
214	9549	62.865490028781	1589
214	9549	62.865490028781	1590
214	9549	62.865490028781	1591
214	9620	63.414226028781	1592
214	9620	63.414226028781	1593
214	9620	63.414226028781	1594
214	9620	63.414226028781	1595
214	9620	63.414226028781	1596
214	9620	63.414226028781	1597
214	9670	64.037842028781	1598
214	9670	64.037842028781	1599
214	9670	64.037842028781	1600
214	9811	64.312210028781	1601
214	9811	64.312210028781	1602
214	9811	64.312210028781	1603
214	9898	64.860946028781	1604
214	9898	64.860946028781	1605
214	9898	64.860946028781	1606
214	10008	65.135314028781	1607
214	10008	65.135314028781	1608
214	10008	65.135314028781	1609
214	10048	65.409682028781	1610
214	10048	65.409682028781	1611
214	10048	65.409682028781	1612
214	10091	65.684050028781	1613
214	10091	65.684050028781	1614
214	10091	65.684050028781	1615
214	10156	66.157906028781	1616
214	10156	66.157906028781	1617
214	10156	66.157906028781	1618
214	10156	66.157906028781	1619
214	10156	66.157906028781	1620
214	10156	66.157906028781	1621
214	10204	66.507154028781	1622
214	10204	66.507154028781	1623
214	10204	66.507154028781	1624
214	10273	67.330770028781	1625
214	10273	67.330770028781	1626
214	10273	67.330770028781	1627
214	10273	67.330770028781	1628
214	10273	67.330770028781	1629
214	10273	67.330770028781	1630
214	10360	67.879506028781	1631
214	10360	67.879506028781	1632
214	10360	67.879506028781	1633
214	10407	68.153874028781	1634
214	10407	68.153874028781	1635
214	10407	68.153874028781	1636
214	10533	69.175954028781	1637
214	10533	69.175954028781	1638
214	10533	69.175954028781	1639
214	10533	69.175954028781	1640
214	10533	69.175954028781	1641
214	10533	69.175954028781	1642
214	10533	69.175954028781	1643
214	10533	69.175954028781	1644
214	10533	69.175954028781	1645
214	10533	69.175954028781	1646
214	10533	69.175954028781	1647
214	10533	69.175954028781	1648
214	10589	69.450322028781	1649
214	10589	69.450322028781	1650
214	10589	69.450322028781	1651
214	10638	69.724690028781	1652
214	10638	69.724690028781	1653
214	10638	69.724690028781	1654
214	10686	69.999058028781	1655
214	10686	69.999058028781	1656
214	10686	69.999058028781	1657
214	10741	70.273426028781	1658
214	10741	70.273426028781	1659
214	10741	70.273426028781	1660
214	10815	70.822162028781	1661
214	10815	70.822162028781	1662
214	10815	70.822162028781	1663
214	10815	70.822162028781	1664
214	10815	70.822162028781	1665
214	10815	70.822162028781	1666
214	10815	70.822162028781	1667
214	10815	70.822162028781	1668
214	10815	70.822162028781	1669
214	10869	71.096530028781	1670
214	10869	71.096530028781	1671
214	10869	71.096530028781	1672
214	10917	71.370898028781	1673
214	10917	71.370898028781	1674
214	10917	71.370898028781	1675
214	10961	71.645266028781	1676
214	10961	71.645266028781	1677
214	10961	71.645266028781	1678
214	11002	71.919634028781	1679
214	11002	71.919634028781	1680
214	11002	71.919634028781	1681
214	11042	72.268882028781	1682
214	11042	72.268882028781	1683
214	11042	72.268882028781	1684
214	11082	72.543250028781	1685
214	11082	72.543250028781	1686
214	11082	72.543250028781	1687
214	11195	73.366354028781	1688
214	11195	73.366354028781	1689
214	11195	73.366354028781	1690
214	11288	74.189458028781	1691
214	11288	74.189458028781	1692
214	11288	74.189458028781	1693
214	11288	74.189458028781	1694
214	11288	74.189458028781	1695
214	11288	74.189458028781	1696
214	11288	74.189458028781	1697
214	11288	74.189458028781	1698
214	11288	74.189458028781	1699
214	11376	74.663314028781	1700
214	11376	74.663314028781	1701
214	11376	74.663314028781	1702
214	11376	74.663314028781	1703
214	11376	74.663314028781	1704
214	11376	74.663314028781	1705
214	11528	74.937682028781	1706
214	11528	74.937682028781	1707
214	11528	74.937682028781	1708
214	11632	75.760786028781	1709
214	11632	75.760786028781	1710
214	11632	75.760786028781	1711
214	11632	75.760786028781	1712
214	11632	75.760786028781	1713
214	11632	75.760786028781	1714
214	11632	75.760786028781	1715
214	11632	75.760786028781	1716
214	11632	75.760786028781	1717
214	11686	76.035154028781	1718
214	11686	76.035154028781	1719
214	11686	76.035154028781	1720
214	11734	76.309522028781	1721
214	11734	76.309522028781	1722
214	11734	76.309522028781	1723
214	11734	76.309522028781	1724
214	11734	76.309522028781	1725
214	11734	76.309522028781	1726
214	11785	76.583890028781	1727
214	11785	76.583890028781	1728
214	11785	76.583890028781	1729
214	11826	76.858258028781	1730
214	11826	76.858258028781	1731
214	11826	76.858258028781	1732
214	11866	77.207506028781	1733
214	11866	77.207506028781	1734
214	11866	77.207506028781	1735
214	11906	77.481874028781	1736
214	11906	77.481874028781	1737
214	11906	77.481874028781	1738
214	12045	78.579346028781	1739
214	12045	78.579346028781	1740
214	12045	78.579346028781	1741
214	12045	78.579346028781	1742
214	12045	78.579346028781	1743
214	12045	78.579346028781	1744
214	12095	79.128594028781	1745
214	12095	79.128594028781	1746
214	12095	79.128594028781	1747
214	12156	79.402450028781	1748
214	12156	79.402450028781	1749
214	12156	79.402450028781	1750
214	12196	79.676818028781	1751
214	12196	79.676818028781	1752
214	12196	79.676818028781	1753
214	12236	79.951186028781	1754
214	12236	79.951186028781	1755
214	12236	79.951186028781	1756
214	12286	80.500434028781	1757
214	12286	80.500434028781	1758
214	12286	80.500434028781	1759
214	12326	80.774802028781	1760
214	12326	80.774802028781	1761
214	12326	80.774802028781	1762
214	12378	81.048658028781	1763
214	12378	81.048658028781	1764
214	12378	81.048658028781	1765
214	12378	81.048658028781	1766
214	12378	81.048658028781	1767
214	12378	81.048658028781	1768
214	12465	81.597394028781	1769
214	12465	81.597394028781	1770
214	12465	81.597394028781	1771
214	12505	81.871762028781	1772
214	12505	81.871762028781	1773
214	12505	81.871762028781	1774
214	12545	82.146130028781	1775
214	12545	82.146130028781	1776
214	12545	82.146130028781	1777
214	12616	82.894354028781	1778
214	12616	82.894354028781	1779
214	12616	82.894354028781	1780
214	12646	82.969234028781	1781
214	12646	82.969234028781	1782
214	12646	82.969234028781	1783
214	12690	83.243602028781	1784
214	12690	83.243602028781	1785
214	12690	83.243602028781	1786
214	12784	84.341586028781	1787
214	12784	84.341586028781	1788
214	12784	84.341586028781	1789
214	12784	84.341586028781	1790
214	12784	84.341586028781	1791
214	12784	84.341586028781	1792
214	12784	84.341586028781	1793
214	12784	84.341586028781	1794
214	12784	84.341586028781	1795
214	12858	84.897874028781	1796
214	12858	84.897874028781	1797
214	12858	84.897874028781	1798
214	12858	84.897874028781	1799
214	12858	84.897874028781	1800
214	12858	84.897874028781	1801
214	13006	85.172242028781	1802
214	13006	85.172242028781	1803
214	13006	85.172242028781	1804
214	13086	85.720978028781	1805
214	13086	85.720978028781	1806
214	13086	85.720978028781	1807
214	13126	85.995346028781	1808
214	13126	85.995346028781	1809
214	13126	85.995346028781	1810
214	13166	86.269714028781	1811
214	13166	86.269714028781	1812
214	13166	86.269714028781	1813
214	13206	86.544082028781	1814
214	13206	86.544082028781	1815
214	13206	86.544082028781	1816
214	13280	87.017938028781	1817
214	13280	87.017938028781	1818
214	13280	87.017938028781	1819
214	13280	87.017938028781	1820
214	13280	87.017938028781	1821
214	13280	87.017938028781	1822
214	13331	87.292306028781	1823
214	13331	87.292306028781	1824
214	13331	87.292306028781	1825
214	13375	87.566674028781	1826
214	13375	87.566674028781	1827
214	13375	87.566674028781	1828
214	13419	87.841042028781	1829
214	13419	87.841042028781	1830
214	13419	87.841042028781	1831
214	13463	88.115410028781	1832
214	13463	88.115410028781	1833
214	13463	88.115410028781	1834
214	13504	88.389778028781	1835
214	13504	88.389778028781	1836
214	13504	88.389778028781	1837
214	13544	88.739026028781	1838
214	13544	88.739026028781	1839
214	13544	88.739026028781	1840
214	13584	89.013394028781	1841
214	13584	89.013394028781	1842
214	13584	89.013394028781	1843
214	13664	89.562130028781	1844
214	13664	89.562130028781	1845
214	13664	89.562130028781	1846
214	13704	89.836498028781	1847
214	13704	89.836498028781	1848
214	13704	89.836498028781	1849
214	13744	90.110866028781	1850
214	13744	90.110866028781	1851
214	13744	90.110866028781	1852
214	13784	90.385234028781	1853
214	13784	90.385234028781	1854
214	13784	90.385234028781	1855
214	13827	90.933970028781	1856
214	13827	90.933970028781	1857
214	13827	90.933970028781	1858
214	14025	92.020964496677	1859
214	14025	92.020964496677	1860
214	14025	92.020964496677	1861
214	14025	92.020964496677	1862
214	14025	92.020964496677	1863
214	14025	92.020964496677	1864
214	14157	92.776740496677	1865
214	14157	92.776740496677	1866
214	14157	92.776740496677	1867
214	14157	92.776740496677	1868
214	14157	92.776740496677	1869
214	14157	92.776740496677	1870
214	14203	93.051108496677	1871
214	14203	93.051108496677	1872
214	14203	93.051108496677	1873
214	14203	93.051108496677	1874
214	14203	93.051108496677	1875
214	14203	93.051108496677	1876
214	14260	93.532516496677	1877
214	14260	93.532516496677	1878
214	14260	93.532516496677	1879
214	14260	93.532516496677	1880
214	14260	93.532516496677	1881
214	14260	93.532516496677	1882
214	14311	93.806884496677	1883
214	14311	93.806884496677	1884
214	14311	93.806884496677	1885
214	14311	93.806884496677	1886
214	14311	93.806884496677	1887
214	14311	93.806884496677	1888
214	14362	94.081252496677	1889
214	14362	94.081252496677	1890
214	14362	94.081252496677	1891
214	14406	94.355620496677	1892
214	14406	94.355620496677	1893
214	14406	94.355620496677	1894
214	14450	94.629988496677	1895
214	14450	94.629988496677	1896
214	14450	94.629988496677	1897
214	14494	94.904356496677	1898
214	14494	94.904356496677	1899
214	14494	94.904356496677	1900
214	14639	95.178724496677	1901
214	14639	95.178724496677	1902
214	14639	95.178724496677	1903
214	14683	95.453092496677	1904
214	14683	95.453092496677	1905
214	14683	95.453092496677	1906
214	14683	95.453092496677	1907
214	14683	95.453092496677	1908
214	14683	95.453092496677	1909
214	14734	95.727460496677	1910
214	14734	95.727460496677	1911
214	14734	95.727460496677	1912
214	14778	96.001828496677	1913
214	14778	96.001828496677	1914
214	14778	96.001828496677	1915
214	14858	96.276196496677	1916
214	14858	96.276196496677	1917
214	14858	96.276196496677	1918
214	14902	96.550564496677	1919
214	14902	96.550564496677	1920
214	14902	96.550564496677	1921
214	14946	96.824932496677	1922
214	14946	96.824932496677	1923
214	14946	96.824932496677	1924
214	14990	97.099300496677	1925
214	14990	97.099300496677	1926
214	14990	97.099300496677	1927
214	15034	97.373668496677	1928
214	15034	97.373668496677	1929
214	15034	97.373668496677	1930
214	15034	97.373668496677	1931
214	15034	97.373668496677	1932
214	15034	97.373668496677	1933
214	15085	97.648036496677	1934
214	15085	97.648036496677	1935
214	15085	97.648036496677	1936
214	15129	97.922404496677	1937
214	15129	97.922404496677	1938
214	15129	97.922404496677	1939
214	15173	98.196772496677	1940
214	15173	98.196772496677	1941
214	15173	98.196772496677	1942
214	15217	98.471140496677	1943
214	15217	98.471140496677	1944
214	15217	98.471140496677	1945
214	15261	98.745508496677	1946
214	15261	98.745508496677	1947
214	15261	98.745508496677	1948
214	15305	99.019876496677	1949
214	15305	99.019876496677	1950
214	15305	99.019876496677	1951
214	15349	99.294244496677	1952
214	15349	99.294244496677	1953
214	15349	99.294244496677	1954
214	15393	99.568612496677	1955
214	15393	99.568612496677	1956
214	15393	99.568612496677	1957
214	15393	99.568612496677	1958
214	15393	99.568612496677	1959
214	15393	99.568612496677	1960
214	15445	99.842980496677	1961
214	15445	99.842980496677	1962
214	15445	99.842980496677	1963
214	15516	100.391716496677	1964
214	15516	100.391716496677	1965
214	15516	100.391716496677	1966
214	15516	100.391716496677	1967
214	15516	100.391716496677	1968
214	15516	100.391716496677	1969
214	15563	100.740964496677	1970
214	15563	100.740964496677	1971
214	15563	100.740964496677	1972
214	15603	101.015332496677	1973
214	15603	101.015332496677	1974
214	15603	101.015332496677	1975
214	15782	102.387172496677	1976
214	15782	102.387172496677	1977
214	15782	102.387172496677	1978
214	15822	102.661540496677	1979
214	15822	102.661540496677	1980
214	15822	102.661540496677	1981
214	15862	102.935908496677	1982
214	15862	102.935908496677	1983
214	15862	102.935908496677	1984
214	15902	103.210276496677	1985
214	15902	103.210276496677	1986
214	15902	103.210276496677	1987
214	16007	103.684132496677	1988
214	16007	103.684132496677	1989
214	16007	103.684132496677	1990
214	16007	103.684132496677	1991
214	16007	103.684132496677	1992
214	16007	103.684132496677	1993
214	16055	103.958500496677	1994
214	16055	103.958500496677	1995
214	16055	103.958500496677	1996
214	16095	104.307748496677	1997
214	16095	104.307748496677	1998
214	16095	104.307748496677	1999
214	16138	104.582116496677	2000
214	16138	104.582116496677	2001
214	16138	104.582116496677	2002
214	16325	105.683620496677	2003
214	16325	105.683620496677	2004
214	16325	105.683620496677	2005
214	16393	106.506724496677	2006
214	16393	106.506724496677	2007
214	16393	106.506724496677	2008
214	16393	106.506724496677	2009
214	16393	106.506724496677	2010
214	16393	106.506724496677	2011
214	16441	107.063524496677	2012
214	16441	107.063524496677	2013
214	16441	107.063524496677	2014
214	16491	107.337892496677	2015
214	16491	107.337892496677	2016
214	16491	107.337892496677	2017
214	16535	107.620324496677	2018
214	16535	107.620324496677	2019
214	16535	107.620324496677	2020
214	16575	107.894180496677	2021
214	16575	107.894180496677	2022
214	16575	107.894180496677	2023
214	16735	108.483045769503	2024
214	16735	108.483045769503	2025
214	16735	108.483045769503	2026
214	16735	108.483045769503	2027
214	16735	108.483045769503	2028
214	16735	108.483045769503	2029
214	16934	109.465508496677	2030
214	16934	109.465508496677	2031
214	16934	109.465508496677	2032
214	16934	109.465508496677	2033
214	16934	109.465508496677	2034
214	16934	109.465508496677	2035
214	16981	109.739876496677	2036
214	16981	109.739876496677	2037
214	16981	109.739876496677	2038
214	16981	109.739876496677	2039
214	16981	109.739876496677	2040
214	16981	109.739876496677	2041
214	17039	110.221284496677	2042
214	17039	110.221284496677	2043
214	17039	110.221284496677	2044
214	17039	110.221284496677	2045
214	17039	110.221284496677	2046
214	17039	110.221284496677	2047
214	17090	110.495652496677	2048
214	17090	110.495652496677	2049
214	17090	110.495652496677	2050
214	17090	110.495652496677	2051
214	17090	110.495652496677	2052
214	17090	110.495652496677	2053
214	17141	110.770020496677	2054
214	17141	110.770020496677	2055
214	17141	110.770020496677	2056
214	17185	111.044388496677	2057
214	17185	111.044388496677	2058
214	17185	111.044388496677	2059
214	17229	111.318756496677	2060
214	17229	111.318756496677	2061
214	17229	111.318756496677	2062
214	17273	111.593124496677	2063
214	17273	111.593124496677	2064
214	17273	111.593124496677	2065
214	17317	111.867492496677	2066
214	17317	111.867492496677	2067
214	17317	111.867492496677	2068
214	17361	112.141860496677	2069
214	17361	112.141860496677	2070
214	17361	112.141860496677	2071
214	17361	112.141860496677	2072
214	17361	112.141860496677	2073
214	17361	112.141860496677	2074
214	17412	112.416228496677	2075
214	17412	112.416228496677	2076
214	17412	112.416228496677	2077
214	17456	112.690596496677	2078
214	17456	112.690596496677	2079
214	17456	112.690596496677	2080
214	17500	112.964964496677	2081
214	17500	112.964964496677	2082
214	17500	112.964964496677	2083
214	17544	113.239332496677	2084
214	17544	113.239332496677	2085
214	17544	113.239332496677	2086
214	17588	113.513700496677	2087
214	17588	113.513700496677	2088
214	17588	113.513700496677	2089
214	17632	113.788068496677	2090
214	17632	113.788068496677	2091
214	17632	113.788068496677	2092
214	17673	114.062436496677	2093
214	17673	114.062436496677	2094
214	17673	114.062436496677	2095
214	17673	114.062436496677	2096
214	17673	114.062436496677	2097
214	17673	114.062436496677	2098
214	17720	114.411684496677	2099
214	17720	114.411684496677	2100
214	17720	114.411684496677	2101
214	17864	114.960932496677	2102
214	17864	114.960932496677	2103
214	17864	114.960932496677	2104
214	18017	116.058404496677	2105
214	18017	116.058404496677	2106
214	18017	116.058404496677	2107
214	18057	116.332772496677	2108
214	18057	116.332772496677	2109
214	18057	116.332772496677	2110
214	18097	116.607140496677	2111
214	18097	116.607140496677	2112
214	18097	116.607140496677	2113
214	18143	116.880996496677	2114
214	18143	116.880996496677	2115
214	18143	116.880996496677	2116
214	18239	117.629220496677	2117
214	18239	117.629220496677	2118
214	18239	117.629220496677	2119
214	18239	117.629220496677	2120
214	18239	117.629220496677	2121
214	18239	117.629220496677	2122
214	18239	117.629220496677	2123
214	18239	117.629220496677	2124
214	18239	117.629220496677	2125
214	18293	117.903588496677	2126
214	18293	117.903588496677	2127
214	18293	117.903588496677	2128
214	18341	118.177956496677	2129
214	18341	118.177956496677	2130
214	18341	118.177956496677	2131
214	18385	118.452324496677	2132
214	18385	118.452324496677	2133
214	18385	118.452324496677	2134
214	18429	118.726692496677	2135
214	18429	118.726692496677	2136
214	18429	118.726692496677	2137
214	18473	119.001060496677	2138
214	18473	119.001060496677	2139
214	18473	119.001060496677	2140
214	18514	119.275428496677	2141
214	18514	119.275428496677	2142
214	18514	119.275428496677	2143
214	18514	119.275428496677	2144
214	18514	119.275428496677	2145
214	18514	119.275428496677	2146
214	18564	119.899044496677	2147
214	18564	119.899044496677	2148
214	18564	119.899044496677	2149
218	5545	34.054272	1
218	15933	103.422432	2
217	5545	34.054272	1
217	15933	103.422432	2
220	114	1.052736	1400
220	118	1.052736	2800
220	118	1.052736	4200
220	118	1.052736	5600
220	121	1.052736	7000
220	121	1.052736	8400
220	121	1.052736	9800
220	408	1.246016	8400
220	408	1.246016	9800
220	408	1.246016	11200
220	408	1.246016	12600
220	462	1.855072	11200
220	462	1.855072	9800
220	462	1.855072	8400
220	462	1.855072	9800
220	462	1.855072	11200
220	462	1.855072	12600
220	462	1.855072	14000
220	462	1.855072	15400
220	462	1.855072	16800
220	513	2.12944	15400
220	513	2.12944	14000
220	513	2.12944	12600
220	513	2.12944	14000
220	513	2.12944	15400
220	513	2.12944	16800
220	513	2.12944	18200
220	513	2.12944	19600
220	513	2.12944	21000
220	564	2.403808	19600
220	564	2.403808	18200
220	564	2.403808	16800
220	564	2.403808	18200
220	564	2.403808	19600
220	564	2.403808	21000
220	564	2.403808	22400
220	564	2.403808	23800
220	564	2.403808	25200
220	615	2.678176	23800
220	615	2.678176	22400
220	615	2.678176	21000
220	615	2.678176	22400
220	615	2.678176	23800
220	615	2.678176	25200
220	615	2.678176	26600
220	615	2.678176	28000
220	615	2.678176	29400
220	666	2.952544	28000
220	666	2.952544	26600
220	666	2.952544	25200
220	666	2.952544	26600
220	666	2.952544	28000
220	666	2.952544	29400
220	666	2.952544	30800
220	666	2.952544	32200
220	666	2.952544	33600
220	717	3.226912	32200
220	717	3.226912	30800
220	717	3.226912	29400
220	717	3.226912	30800
220	717	3.226912	32200
220	717	3.226912	33600
220	717	3.226912	35000
220	717	3.226912	36400
220	717	3.226912	37800
220	768	3.50128	36400
220	768	3.50128	35000
220	768	3.50128	33600
220	768	3.50128	35000
220	768	3.50128	36400
220	768	3.50128	37800
220	768	3.50128	39200
220	768	3.50128	40600
220	768	3.50128	42000
220	819	3.775648	40600
220	819	3.775648	39200
220	819	3.775648	37800
220	819	3.775648	39200
220	819	3.775648	40600
220	819	3.775648	42000
220	819	3.775648	43400
220	819	3.775648	44800
220	819	3.775648	46200
220	870	4.050016	44800
220	870	4.050016	43400
220	870	4.050016	42000
220	870	4.050016	43400
220	870	4.050016	44800
220	870	4.050016	46200
220	870	4.050016	47600
220	870	4.050016	49000
220	870	4.050016	50400
220	918	4.324384	49000
220	918	4.324384	47600
220	918	4.324384	46200
220	918	4.324384	47600
220	918	4.324384	49000
220	918	4.324384	50400
220	918	4.324384	51800
220	918	4.324384	53200
220	918	4.324384	54600
220	965	4.673632	56000
220	965	4.673632	57400
220	965	4.673632	58800
220	1005	4.948	60200
220	1005	4.948	61600
220	1005	4.948	63000
220	1331	7.96656	64400
220	1331	7.96656	65800
220	1331	7.96656	67200
220	1331	7.96656	68600
220	1331	7.96656	70000
220	1331	7.96656	71400
220	1331	7.96656	72800
220	1331	7.96656	74200
220	1331	7.96656	75600
220	1456	8.514784	74200
220	1456	8.514784	72800
220	1456	8.514784	71400
220	1456	8.514784	70000
220	1456	8.514784	68600
220	1456	8.514784	67200
220	1456	8.514784	65800
220	1456	8.514784	64400
220	1456	8.514784	63000
220	1456	8.514784	61600
220	1456	8.514784	60200
220	1456	8.514784	58800
220	1456	8.514784	57400
220	1456	8.514784	56000
220	1456	8.514784	54600
220	1456	8.514784	53200
220	1456	8.514784	51800
220	1456	8.514784	50400
220	1456	8.514784	49000
220	1456	8.514784	47600
220	1456	8.514784	46200
220	1456	8.514784	44800
220	1456	8.514784	43400
220	1456	8.514784	42000
220	1456	8.514784	40600
220	1456	8.514784	39200
220	1456	8.514784	37800
220	1527	8.98864	36400
220	1527	8.98864	35000
220	1527	8.98864	33600
220	1527	8.98864	32200
220	1527	8.98864	30800
220	1527	8.98864	29400
220	1527	8.98864	28000
220	1527	8.98864	26600
220	1527	8.98864	25200
220	1527	8.98864	23800
220	1527	8.98864	22400
220	1527	8.98864	21000
220	1527	8.98864	19600
220	1527	8.98864	18200
220	1527	8.98864	16800
220	1527	8.98864	15400
220	1527	8.98864	14000
220	1527	8.98864	12600
220	1527	8.98864	14000
220	1527	8.98864	15400
220	1527	8.98864	16800
220	1527	8.98864	18200
220	1527	8.98864	19600
220	1527	8.98864	21000
220	1527	8.98864	22400
220	1527	8.98864	23800
220	1527	8.98864	25200
220	1527	8.98864	26600
220	1527	8.98864	28000
220	1527	8.98864	29400
220	1580	9.263008	28000
220	1580	9.263008	26600
220	1580	9.263008	25200
220	1580	9.263008	26600
220	1580	9.263008	28000
220	1580	9.263008	29400
220	1580	9.263008	30800
220	1580	9.263008	32200
220	1580	9.263008	33600
220	1728	9.612256	35000
220	1728	9.612256	36400
220	1728	9.612256	37800
220	1773	9.886624	39200
220	1773	9.886624	40600
220	1773	9.886624	42000
220	1923	10.984096	43400
220	1923	10.984096	44800
220	1923	10.984096	46200
220	1963	11.258464	47600
220	1963	11.258464	49000
220	1963	11.258464	50400
220	2029	11.8072	51800
220	2029	11.8072	53200
220	2029	11.8072	54600
220	2029	11.8072	56000
220	2029	11.8072	57400
220	2029	11.8072	58800
220	2113	12.281056	57400
220	2113	12.281056	56000
220	2113	12.281056	54600
220	2113	12.281056	53200
220	2113	12.281056	51800
220	2113	12.281056	50400
220	2113	12.281056	49000
220	2113	12.281056	47600
220	2113	12.281056	46200
220	2113	12.281056	44800
220	2113	12.281056	43400
220	2113	12.281056	42000
220	2113	12.281056	40600
220	2113	12.281056	39200
220	2113	12.281056	37800
220	2113	12.281056	36400
220	2113	12.281056	35000
220	2113	12.281056	33600
220	2113	12.281056	32200
220	2113	12.281056	30800
220	2113	12.281056	29400
220	2113	12.281056	28000
220	2113	12.281056	26600
220	2113	12.281056	25200
220	2113	12.281056	23800
220	2113	12.281056	22400
220	2113	12.281056	21000
220	2113	12.281056	19600
220	2113	12.281056	18200
220	2113	12.281056	16800
220	2113	12.281056	18200
220	2113	12.281056	19600
220	2113	12.281056	21000
220	2113	12.281056	22400
220	2113	12.281056	23800
220	2113	12.281056	25200
220	2164	12.555424	23800
220	2164	12.555424	22400
220	2164	12.555424	21000
220	2164	12.555424	22400
220	2164	12.555424	23800
220	2164	12.555424	25200
220	2208	12.829792	23800
220	2208	12.829792	22400
220	2208	12.829792	21000
220	2208	12.829792	22400
220	2208	12.829792	23800
220	2208	12.829792	25200
220	2252	13.10416	23800
220	2252	13.10416	22400
220	2252	13.10416	21000
220	2252	13.10416	22400
220	2252	13.10416	23800
220	2252	13.10416	25200
220	2296	13.378528	23800
220	2296	13.378528	22400
220	2296	13.378528	21000
220	2296	13.378528	22400
220	2296	13.378528	23800
220	2296	13.378528	25200
220	2340	13.652896	23800
220	2340	13.652896	22400
220	2340	13.652896	21000
220	2340	13.652896	22400
220	2340	13.652896	23800
220	2340	13.652896	25200
220	2381	13.927264	23800
220	2381	13.927264	22400
220	2381	13.927264	21000
220	2381	13.927264	22400
220	2381	13.927264	23800
220	2381	13.927264	25200
220	2381	13.927264	26600
220	2381	13.927264	28000
220	2381	13.927264	29400
220	2428	14.276512	30800
220	2428	14.276512	32200
220	2428	14.276512	33600
220	2468	14.55088	35000
220	2468	14.55088	36400
220	2468	14.55088	37800
220	2613	16.198112	39200
220	2613	16.198112	40600
220	2613	16.198112	42000
220	2613	16.198112	43400
220	2613	16.198112	44800
220	2613	16.198112	46200
220	2668	16.471968	44800
220	2668	16.471968	43400
220	2668	16.471968	42000
220	2668	16.471968	40600
220	2668	16.471968	39200
220	2668	16.471968	37800
220	2668	16.471968	36400
220	2668	16.471968	35000
220	2668	16.471968	33600
220	2668	16.471968	32200
220	2668	16.471968	30800
220	2668	16.471968	29400
220	2668	16.471968	30800
220	2668	16.471968	32200
220	2668	16.471968	33600
220	2715	17.029792	35000
220	2715	17.029792	36400
220	2715	17.029792	37800
220	2797	17.586592	36400
220	2797	17.586592	35000
220	2797	17.586592	33600
220	2797	17.586592	32200
220	2797	17.586592	30800
220	2797	17.586592	29400
220	2797	17.586592	28000
220	2797	17.586592	26600
220	2797	17.586592	25200
220	2797	17.586592	26600
220	2797	17.586592	28000
220	2797	17.586592	29400
220	2797	17.586592	30800
220	2797	17.586592	32200
220	2797	17.586592	33600
220	2847	17.86096	35000
220	2847	17.86096	36400
220	2847	17.86096	37800
220	2900	18.14288	36400
220	2900	18.14288	35000
220	2900	18.14288	33600
220	2900	18.14288	32200
220	2900	18.14288	30800
220	2900	18.14288	29400
220	2900	18.14288	30800
220	2900	18.14288	32200
220	2900	18.14288	33600
220	2900	18.14288	35000
220	2900	18.14288	36400
220	2900	18.14288	37800
220	2947	18.417248	39200
220	2947	18.417248	40600
220	2947	18.417248	42000
220	2991	18.691616	43400
220	2991	18.691616	44800
220	2991	18.691616	46200
220	3056	19.165472	44800
220	3056	19.165472	43400
220	3056	19.165472	42000
220	3056	19.165472	40600
220	3056	19.165472	39200
220	3056	19.165472	37800
220	3056	19.165472	36400
220	3056	19.165472	35000
220	3056	19.165472	33600
220	3056	19.165472	32200
220	3056	19.165472	30800
220	3056	19.165472	29400
220	3056	19.165472	28000
220	3056	19.165472	26600
220	3056	19.165472	25200
220	3056	19.165472	23800
220	3056	19.165472	22400
220	3056	19.165472	21000
220	3056	19.165472	22400
220	3056	19.165472	23800
220	3056	19.165472	25200
220	3097	19.43984	23800
220	3097	19.43984	22400
220	3097	19.43984	21000
220	3097	19.43984	22400
220	3097	19.43984	23800
220	3097	19.43984	25200
220	3137	19.789088	26600
220	3137	19.789088	28000
220	3137	19.789088	29400
220	3177	20.063456	30800
220	3177	20.063456	32200
220	3177	20.063456	33600
220	3257	20.612192	35000
220	3257	20.612192	36400
220	3257	20.612192	37800
220	3398	20.88656	39200
220	3398	20.88656	40600
220	3398	20.88656	42000
220	3438	21.160928	43400
220	3438	21.160928	44800
220	3438	21.160928	46200
220	3476	21.435296	47600
220	3476	21.435296	49000
220	3476	21.435296	50400
220	3547	21.909152	49000
220	3547	21.909152	47600
220	3547	21.909152	46200
220	3547	21.909152	44800
220	3547	21.909152	43400
220	3547	21.909152	42000
220	3547	21.909152	40600
220	3547	21.909152	39200
220	3547	21.909152	37800
220	3547	21.909152	36400
220	3547	21.909152	35000
220	3547	21.909152	33600
220	3547	21.909152	32200
220	3547	21.909152	30800
220	3547	21.909152	29400
220	3547	21.909152	28000
220	3547	21.909152	26600
220	3547	21.909152	25200
220	3547	21.909152	23800
220	3547	21.909152	22400
220	3547	21.909152	21000
220	3547	21.909152	19600
220	3547	21.909152	18200
220	3547	21.909152	16800
220	3547	21.909152	18200
220	3547	21.909152	19600
220	3547	21.909152	21000
220	3547	21.909152	22400
220	3547	21.909152	23800
220	3547	21.909152	25200
220	3598	22.18352	23800
220	3598	22.18352	22400
220	3598	22.18352	21000
220	3598	22.18352	22400
220	3598	22.18352	23800
220	3598	22.18352	25200
220	3662	22.532768	23800
220	3662	22.532768	22400
220	3662	22.532768	21000
220	3662	22.532768	22400
220	3662	22.532768	23800
220	3662	22.532768	25200
220	3662	22.532768	26600
[...]
343	8978	58.542930028781	753200
343	9020	58.817298028781	754600
343	9021	58.817298028781	756000
343	9022	58.817298028781	757400
343	9284	61.286610028781	758800
343	9285	61.286610028781	760200
343	9286	61.286610028781	761600
343	9287	61.286610028781	763000
343	9288	61.286610028781	764400
343	9289	61.286610028781	765800
343	9290	61.286610028781	767200
343	9291	61.286610028781	768600
343	9292	61.286610028781	770000
343	9368	61.835346028781	771400
343	9369	61.835346028781	772800
343	9370	61.835346028781	774200
343	9412	62.109714028781	775600
343	9413	62.109714028781	777000
343	9414	62.109714028781	778400
343	9415	62.109714028781	779800
343	9416	62.109714028781	781200
343	9417	62.109714028781	782600
343	9418	62.109714028781	784000
343	9419	62.109714028781	785400
343	9420	62.109714028781	786800
343	9421	62.109714028781	788200
343	9422	62.109714028781	789600
343	9423	62.109714028781	791000
343	9424	62.109714028781	792400
343	9425	62.109714028781	793800
343	9426	62.109714028781	795200
343	9470	62.384082028781	796600
343	9471	62.384082028781	798000
343	9472	62.384082028781	799400
343	9519	62.658450028781	800800
343	9520	62.658450028781	802200
343	9521	62.658450028781	803600
343	9563	62.932818028781	805000
343	9564	62.932818028781	806400
343	9565	62.932818028781	807800
343	9597	63.207186028781	809200
343	9598	63.207186028781	810600
343	9599	63.207186028781	812000
343	10074	65.676498028781	813400
343	10075	65.676498028781	814800
343	10076	65.676498028781	816200
343	10115	65.950866028781	817600
343	10116	65.950866028781	819000
343	10117	65.950866028781	820400
343	10118	65.950866028781	821800
343	10119	65.950866028781	823200
343	10120	65.950866028781	824600
343	10121	65.950866028781	826000
343	10122	65.950866028781	827400
343	10123	65.950866028781	828800
343	10124	65.950866028781	830200
343	10125	65.950866028781	831600
343	10126	65.950866028781	833000
343	10127	65.950866028781	834400
343	10128	65.950866028781	835800
343	10129	65.950866028781	837200
343	10130	65.950866028781	838600
343	10131	65.950866028781	840000
343	10132	65.950866028781	841400
343	10133	65.950866028781	842800
343	10134	65.950866028781	844200
343	10135	65.950866028781	845600
343	10459	68.694546028781	847000
343	10460	68.694546028781	848400
343	10461	68.694546028781	849800
343	10462	68.694546028781	851200
343	10463	68.694546028781	852600
343	10464	68.694546028781	854000
343	10489	68.968914028781	855400
343	10490	68.968914028781	856800
343	10491	68.968914028781	858200
343	10492	68.968914028781	859600
343	10493	68.968914028781	861000
343	10494	68.968914028781	862400
343	10495	68.968914028781	863800
343	10496	68.968914028781	865200
343	10497	68.968914028781	866600
343	10498	68.968914028781	868000
343	10499	68.968914028781	869400
343	10500	68.968914028781	870800
343	10501	68.968914028781	872200
343	10502	68.968914028781	873600
343	10503	68.968914028781	875000
343	10504	68.968914028781	876400
343	10505	68.968914028781	877800
343	10506	68.968914028781	879200
343	10507	68.968914028781	880600
343	10508	68.968914028781	882000
343	10509	68.968914028781	883400
343	10553	69.243282028781	884800
343	10554	69.243282028781	886200
343	10555	69.243282028781	887600
343	10602	69.517650028781	889000
343	10603	69.517650028781	890400
343	10604	69.517650028781	891800
343	10651	69.792018028781	893200
343	10652	69.792018028781	894600
343	10653	69.792018028781	896000
343	10711	70.066386028781	897400
343	10712	70.066386028781	898800
343	10713	70.066386028781	900200
343	10755	70.340754028781	901600
343	10756	70.340754028781	903000
343	10757	70.340754028781	904400
343	10789	70.615122028781	905800
343	10790	70.615122028781	907200
343	10791	70.615122028781	908600
343	10833	70.889490028781	910000
343	10834	70.889490028781	911400
343	10835	70.889490028781	912800
343	10882	71.163858028781	914200
343	10883	71.163858028781	915600
343	10884	71.163858028781	917000
343	10931	71.438226028781	918400
343	10932	71.438226028781	919800
343	10933	71.438226028781	921200
343	10975	71.712594028781	922600
343	10976	71.712594028781	924000
343	10977	71.712594028781	925400
343	11317	74.456274028781	926800
343	11318	74.456274028781	928200
343	11319	74.456274028781	929600
343	11320	74.456274028781	931000
343	11321	74.456274028781	932400
343	11322	74.456274028781	933800
343	11323	74.456274028781	935200
343	11324	74.456274028781	936600
343	11325	74.456274028781	938000
343	11326	74.456274028781	939400
343	11327	74.456274028781	940800
343	11328	74.456274028781	942200
343	11329	74.456274028781	943600
343	11330	74.456274028781	945000
343	11331	74.456274028781	946400
343	11332	74.456274028781	947800
343	11333	74.456274028781	949200
343	11334	74.456274028781	950600
343	11335	74.456274028781	952000
343	11336	74.456274028781	953400
343	11337	74.456274028781	954800
343	11338	74.456274028781	956200
343	11339	74.456274028781	957600
343	11340	74.456274028781	959000
343	11341	74.456274028781	960400
343	11342	74.456274028781	961800
343	11343	74.456274028781	963200
343	11493	74.730642028781	964600
343	11494	74.730642028781	966000
343	11495	74.730642028781	967400
343	11542	75.005010028781	968800
343	11543	75.005010028781	970200
343	11544	75.005010028781	971600
343	11576	75.279378028781	973000
343	11577	75.279378028781	974400
343	11578	75.279378028781	975800
343	11606	75.553746028781	977200
343	11607	75.553746028781	978600
343	11608	75.553746028781	980000
343	11650	75.828114028781	981400
343	11651	75.828114028781	982800
343	11652	75.828114028781	984200
343	11699	76.102482028781	985600
343	11700	76.102482028781	987000
343	11701	76.102482028781	988400
343	11750	76.376850028781	989800
343	11751	76.376850028781	991200
343	11752	76.376850028781	992600
343	11799	76.651218028781	994000
343	11800	76.651218028781	995400
343	11801	76.651218028781	996800
343	12121	79.394898028781	998200
343	12122	79.394898028781	999600
343	12123	79.394898028781	1001000
343	12124	79.394898028781	1002400
343	12125	79.394898028781	1003800
343	12126	79.394898028781	1005200
343	12127	79.394898028781	1006600
343	12128	79.394898028781	1008000
343	12129	79.394898028781	1009400
343	12130	79.394898028781	1010800
343	12131	79.394898028781	1012200
343	12132	79.394898028781	1013600
343	12133	79.394898028781	1015000
343	12134	79.394898028781	1016400
343	12135	79.394898028781	1017800
343	12136	79.394898028781	1019200
343	12137	79.394898028781	1020600
343	12138	79.394898028781	1022000
343	12139	79.394898028781	1023400
343	12140	79.394898028781	1024800
343	12141	79.394898028781	1026200
343	12352	81.041106028781	1027600
343	12353	81.041106028781	1029000
343	12354	81.041106028781	1030400
343	12355	81.041106028781	1031800
343	12356	81.041106028781	1033200
343	12357	81.041106028781	1034600
343	12358	81.041106028781	1036000
343	12359	81.041106028781	1037400
343	12360	81.041106028781	1038800
343	12361	81.041106028781	1040200
343	12362	81.041106028781	1041600
343	12363	81.041106028781	1043000
343	12572	82.687314028781	1044400
343	12573	82.687314028781	1045800
343	12574	82.687314028781	1047200
343	12575	82.687314028781	1048600
343	12576	82.687314028781	1050000
343	12577	82.687314028781	1051400
343	12578	82.687314028781	1052800
343	12579	82.687314028781	1054200
343	12580	82.687314028781	1055600
343	12581	82.687314028781	1057000
343	12582	82.687314028781	1058400
343	12583	82.687314028781	1059800
343	12584	82.687314028781	1061200
343	12585	82.687314028781	1062600
343	12586	82.687314028781	1064000
343	12587	82.687314028781	1065400
343	12588	82.687314028781	1066800
343	12589	82.687314028781	1068200
343	12590	82.687314028781	1069600
343	12591	82.687314028781	1071000
343	12592	82.687314028781	1072400
343	12832	84.890322028781	1073800
343	12833	84.890322028781	1075200
343	12834	84.890322028781	1076600
343	12835	84.890322028781	1078000
343	12836	84.890322028781	1079400
343	12837	84.890322028781	1080800
343	12838	84.890322028781	1082200
343	12839	84.890322028781	1083600
343	12840	84.890322028781	1085000
343	12841	84.890322028781	1086400
343	12842	84.890322028781	1087800
343	12843	84.890322028781	1089200
343	13230	86.810898028781	1090600
343	13231	86.810898028781	1092000
343	13232	86.810898028781	1093400
343	13233	86.810898028781	1094800
343	13234	86.810898028781	1096200
343	13235	86.810898028781	1097600
343	13236	86.810898028781	1099000
343	13237	86.810898028781	1100400
343	13238	86.810898028781	1101800
343	13239	86.810898028781	1103200
343	13240	86.810898028781	1104600
343	13241	86.810898028781	1106000
343	13242	86.810898028781	1107400
343	13243	86.810898028781	1108800
343	13244	86.810898028781	1110200
343	13245	86.810898028781	1111600
343	13246	86.810898028781	1113000
343	13247	86.810898028781	1114400
343	13248	86.810898028781	1115800
343	13249	86.810898028781	1117200
343	13250	86.810898028781	1118600
343	13251	86.810898028781	1120000
343	13252	86.810898028781	1121400
343	13253	86.810898028781	1122800
343	13254	86.810898028781	1124200
343	13255	86.810898028781	1125600
343	13256	86.810898028781	1127000
343	13296	87.085266028781	1128400
343	13297	87.085266028781	1129800
343	13298	87.085266028781	1131200
343	13345	87.359634028781	1132600
343	13346	87.359634028781	1134000
343	13347	87.359634028781	1135400
343	13389	87.634002028781	1136800
343	13390	87.634002028781	1138200
343	13391	87.634002028781	1139600
343	13433	87.908370028781	1141000
343	13434	87.908370028781	1142400
343	13435	87.908370028781	1143800
343	13477	88.182738028781	1145200
343	13478	88.182738028781	1146600
343	13479	88.182738028781	1148000
343	13974	92.015684496677	1149400
343	13975	92.015684496677	1150800
343	13976	92.015684496677	1152200
343	13977	92.015684496677	1153600
343	13978	92.015684496677	1155000
343	13979	92.015684496677	1156400
343	13980	92.015684496677	1157800
343	13981	92.015684496677	1159200
343	13982	92.015684496677	1160600
343	13983	92.015684496677	1162000
343	13984	92.015684496677	1163400
343	13985	92.015684496677	1164800
343	13986	92.015684496677	1166200
343	13987	92.015684496677	1167600
343	13988	92.015684496677	1169000
343	13989	92.015684496677	1170400
343	13990	92.015684496677	1171800
343	13991	92.015684496677	1173200
343	13992	92.015684496677	1174600
343	13993	92.015684496677	1176000
343	13994	92.015684496677	1177400
343	13995	92.015684496677	1178800
343	13996	92.015684496677	1180200
343	13997	92.015684496677	1181600
343	13998	92.015684496677	1183000
343	13999	92.015684496677	1184400
343	14000	92.015684496677	1185800
343	14001	92.015684496677	1187200
343	14002	92.015684496677	1188600
343	14003	92.015684496677	1190000
343	14004	92.015684496677	1191400
343	14005	92.015684496677	1192800
343	14006	92.015684496677	1194200
343	14007	92.015684496677	1195600
343	14008	92.015684496677	1197000
343	14009	92.015684496677	1198400
343	14041	92.023890028781	1199800
343	14042	92.023890028781	1201200
343	14043	92.023890028781	1202600
343	14131	92.569700496677	1204000
343	14132	92.569700496677	1205400
343	14133	92.569700496677	1206800
343	14173	92.844068496677	1208200
343	14174	92.844068496677	1209600
343	14175	92.844068496677	1211000
343	14234	93.325476496677	1212400
343	14235	93.325476496677	1213800
343	14236	93.325476496677	1215200
343	14276	93.599844496677	1216600
343	14277	93.599844496677	1218000
343	14278	93.599844496677	1219400
343	14327	93.874212496677	1220800
343	14328	93.874212496677	1222200
343	14329	93.874212496677	1223600
343	14376	94.148580496677	1225000
343	14377	94.148580496677	1226400
343	14378	94.148580496677	1227800
343	14420	94.422948496677	1229200
343	14421	94.422948496677	1230600
343	14422	94.422948496677	1232000
343	14464	94.697316496677	1233400
343	14465	94.697316496677	1234800
343	14466	94.697316496677	1236200
343	14609	94.971684496677	1237600
343	14610	94.971684496677	1239000
343	14611	94.971684496677	1240400
343	14653	95.246052496677	1241800
343	14654	95.246052496677	1243200
343	14655	95.246052496677	1244600
343	14699	95.520420496677	1246000
343	14700	95.520420496677	1247400
343	14701	95.520420496677	1248800
343	14748	95.794788496677	1250200
343	14749	95.794788496677	1251600
343	14750	95.794788496677	1253000
343	14828	96.069156496677	1254400
343	14829	96.069156496677	1255800
343	14830	96.069156496677	1257200
343	14872	96.343524496677	1258600
343	14873	96.343524496677	1260000
343	14874	96.343524496677	1261400
343	14916	96.617892496677	1262800
343	14917	96.617892496677	1264200
343	14918	96.617892496677	1265600
343	14960	96.892260496677	1267000
343	14961	96.892260496677	1268400
343	14962	96.892260496677	1269800
343	15004	97.166628496677	1271200
343	15005	97.166628496677	1272600
343	15006	97.166628496677	1274000
343	15050	97.440996496677	1275400
343	15051	97.440996496677	1276800
343	15052	97.440996496677	1278200
343	15099	97.715364496677	1279600
343	15100	97.715364496677	1281000
343	15101	97.715364496677	1282400
343	15143	97.989732496677	1283800
343	15144	97.989732496677	1285200
343	15145	97.989732496677	1286600
343	15187	98.264100496677	1288000
343	15188	98.264100496677	1289400
343	15189	98.264100496677	1290800
343	15231	98.538468496677	1292200
343	15232	98.538468496677	1293600
343	15233	98.538468496677	1295000
343	15275	98.812836496677	1296400
343	15276	98.812836496677	1297800
343	15277	98.812836496677	1299200
343	15319	99.087204496677	1300600
343	15320	99.087204496677	1302000
343	15321	99.087204496677	1303400
343	15363	99.361572496677	1304800
343	15364	99.361572496677	1306200
343	15365	99.361572496677	1307600
343	15409	99.635940496677	1309000
343	15410	99.635940496677	1310400
343	15411	99.635940496677	1311800
343	15459	99.910308496677	1313200
343	15460	99.910308496677	1314600
343	15461	99.910308496677	1316000
343	15493	100.184676496677	1317400
343	15494	100.184676496677	1318800
343	15495	100.184676496677	1320200
343	15951	103.477092496677	1321600
343	15952	103.477092496677	1323000
343	15953	103.477092496677	1324400
343	15954	103.477092496677	1325800
343	15955	103.477092496677	1327200
343	15956	103.477092496677	1328600
343	15957	103.477092496677	1330000
343	15958	103.477092496677	1331400
343	15959	103.477092496677	1332800
343	15960	103.477092496677	1334200
343	15961	103.477092496677	1335600
343	15962	103.477092496677	1337000
343	15963	103.477092496677	1338400
343	15964	103.477092496677	1339800
343	15965	103.477092496677	1341200
343	15966	103.477092496677	1342600
343	15967	103.477092496677	1344000
343	15968	103.477092496677	1345400
343	15969	103.477092496677	1346800
343	15970	103.477092496677	1348200
343	15971	103.477092496677	1349600
343	15972	103.477092496677	1351000
343	15973	103.477092496677	1352400
343	15974	103.477092496677	1353800
343	15975	103.477092496677	1355200
343	15976	103.477092496677	1356600
343	15977	103.477092496677	1358000
343	15978	103.477092496677	1359400
343	15979	103.477092496677	1360800
343	15980	103.477092496677	1362200
343	15981	103.477092496677	1363600
343	15982	103.477092496677	1365000
343	15983	103.477092496677	1366400
343	16023	103.751460496677	1367800
343	16024	103.751460496677	1369200
343	16025	103.751460496677	1370600
343	16670	108.475493769503	1372000
343	16671	108.475493769503	1373400
343	16672	108.475493769503	1374800
343	16673	108.475493769503	1376200
343	16674	108.475493769503	1377600
343	16675	108.475493769503	1379000
343	16676	108.475493769503	1380400
343	16677	108.475493769503	1381800
343	16678	108.475493769503	1383200
343	16679	108.475493769503	1384600
343	16680	108.475493769503	1386000
343	16681	108.475493769503	1387400
343	16682	108.475493769503	1388800
343	16683	108.475493769503	1390200
343	16684	108.475493769503	1391600
343	16685	108.475493769503	1393000
343	16686	108.475493769503	1394400
343	16687	108.475493769503	1395800
343	16688	108.475493769503	1397200
343	16689	108.475493769503	1398600
343	16690	108.475493769503	1400000
343	16691	108.475493769503	1401400
343	16692	108.475493769503	1402800
343	16693	108.475493769503	1404200
343	16694	108.475493769503	1405600
343	16695	108.475493769503	1407000
343	16696	108.475493769503	1408400
343	16697	108.475493769503	1409800
343	16698	108.475493769503	1411200
343	16699	108.475493769503	1412600
343	16700	108.475493769503	1414000
343	16701	108.475493769503	1415400
343	16702	108.475493769503	1416800
343	16768	108.612677769503	1418200
343	16769	108.612677769503	1419600
343	16770	108.612677769503	1421000
343	16771	108.612677769503	1422400
343	16772	108.612677769503	1423800
343	16773	108.612677769503	1425200
343	16791	108.709732496677	1426600
343	16792	108.709732496677	1428000
343	16793	108.709732496677	1429400
343	16869	108.984100496677	1430800
343	16870	108.984100496677	1432200
343	16871	108.984100496677	1433600
343	16909	109.258468496677	1435000
343	16910	109.258468496677	1436400
343	16911	109.258468496677	1437800
343	16951	109.532836496677	1439200
343	16952	109.532836496677	1440600
343	16953	109.532836496677	1442000
343	17012	110.014244496677	1443400
343	17013	110.014244496677	1444800
343	17014	110.014244496677	1446200
343	17055	110.288612496677	1447600
343	17056	110.288612496677	1449000
343	17057	110.288612496677	1450400
343	17106	110.562980496677	1451800
343	17107	110.562980496677	1453200
343	17108	110.562980496677	1454600
343	17155	110.837348496677	1456000
343	17156	110.837348496677	1457400
343	17157	110.837348496677	1458800
343	17199	111.111716496677	1460200
343	17200	111.111716496677	1461600
343	17201	111.111716496677	1463000
343	17243	111.386084496677	1464400
343	17244	111.386084496677	1465800
343	17245	111.386084496677	1467200
343	17287	111.660452496677	1468600
343	17288	111.660452496677	1470000
343	17289	111.660452496677	1471400
343	17331	111.934820496677	1472800
343	17332	111.934820496677	1474200
343	17333	111.934820496677	1475600
343	17377	112.209188496677	1477000
343	17378	112.209188496677	1478400
343	17379	112.209188496677	1479800
343	17426	112.483556496677	1481200
343	17427	112.483556496677	1482600
343	17428	112.483556496677	1484000
343	17470	112.757924496677	1485400
343	17471	112.757924496677	1486800
343	17472	112.757924496677	1488200
343	17514	113.032292496677	1489600
343	17515	113.032292496677	1491000
343	17516	113.032292496677	1492400
343	17558	113.306660496677	1493800
343	17559	113.306660496677	1495200
343	17560	113.306660496677	1496600
343	17602	113.581028496677	1498000
343	17603	113.581028496677	1499400
343	17604	113.581028496677	1500800
343	17646	113.855396496677	1502200
343	17647	113.855396496677	1503600
343	17648	113.855396496677	1505000
343	18123	116.873444496677	1506400
343	18124	116.873444496677	1507800
343	18125	116.873444496677	1509200
343	18126	116.873444496677	1510600
343	18127	116.873444496677	1512000
343	18128	116.873444496677	1513400
343	18167	117.147812496677	1514800
343	18168	117.147812496677	1516200
343	18169	117.147812496677	1517600
343	18170	117.147812496677	1519000
343	18171	117.147812496677	1520400
343	18172	117.147812496677	1521800
343	18173	117.147812496677	1523200
343	18174	117.147812496677	1524600
343	18175	117.147812496677	1526000
343	18176	117.147812496677	1527400
343	18177	117.147812496677	1528800
343	18178	117.147812496677	1530200
343	18179	117.147812496677	1531600
343	18180	117.147812496677	1533000
343	18181	117.147812496677	1534400
343	18182	117.147812496677	1535800
343	18183	117.147812496677	1537200
343	18184	117.147812496677	1538600
343	18185	117.147812496677	1540000
343	18186	117.147812496677	1541400
343	18187	117.147812496677	1542800
343	18188	117.147812496677	1544200
343	18189	117.147812496677	1545600
343	18190	117.147812496677	1547000
343	18213	117.422180496677	1548400
343	18214	117.422180496677	1549800
343	18215	117.422180496677	1551200
343	18257	117.696548496677	1552600
343	18258	117.696548496677	1554000
343	18259	117.696548496677	1555400
343	18306	117.970916496677	1556800
343	18307	117.970916496677	1558200
343	18308	117.970916496677	1559600
343	18355	118.245284496677	1561000
343	18356	118.245284496677	1562400
343	18357	118.245284496677	1563800
343	18399	118.519652496677	1565200
343	18400	118.519652496677	1566600
343	18401	118.519652496677	1568000
343	18443	118.794020496677	1569400
343	18444	118.794020496677	1570800
343	18445	118.794020496677	1572200
343	18487	119.068388496677	1573600
343	18488	119.068388496677	1575000
343	18489	119.068388496677	1576400
