version 2
run General-0-20180703-21:56:10-5086
attr configname General
attr datetime 20180703-21:56:10
attr experiment General
attr inifile omnetpp.ini
attr iterationvars ""
attr iterationvars2 $repetition=0
attr measurement ""
attr network multi
attr processid 5086
attr repetition 0
attr replication #0
attr resultdir results
attr runnumber 0
attr seedset 0
param **.cli*.numTcpApps 0
param **.cli*.sctpApp[*].typename "\"SCTPClient\""
param **.cli*.tcpApp[*].typename "\"TCPBasicClientApp\""
param **.cli1.numSctpApps 1
param **.cli1.sctpApp[0].connectAddress "\"10.1.3.1\""
param **.cli1.sctpApp[0].connectPort 6666
param **.cli1.sctpApp[0].localAddress "\"10.1.1.1 10.2.1.1\""
param **.cli1.sctpApp[0].numRequestsPerSession 100000000
param **.cli1.sctpApp[0].outboundStreams 1
param **.cli1.sctpApp[0].primaryPath "\"10.1.3.1\""
param **.cli1.sctpApp[0].queueSize 100
param **.cli1.sctpApp[0].requestLength 1400
param **.cli1.sctpApp[0].startTime 1s
param **.cli1.sctpApp[0].stopTime 120s
param **.numUdpApps 0
param **.ppp[*].queue.frameCapacity 20
param **.ppp[*].queueType "\"DropTailQueue\""
param **.srv1.numSctpApps 1
param **.srv1.numTcpApps 0
param **.srv1.sctpApp[*].typename "\"SCTPServer\""
param **.srv1.sctpApp[0].bytesToPush 0
param **.srv1.sctpApp[0].localAddress "\"10.1.3.1 10.2.3.1\""
param **.srv1.sctpApp[0].localPort 6666
param **.srv1.sctpApp[0].numPacketsToReceivePerClient 0
param **.srv1.sctpApp[0].numPacketsToSendPerClient 0
param **.srv1.sctpApp[0].outboundStreams 1
param **.srv1.sctpApp[0].queueSize 0
param **.srv1.sctpApp[0].readingInterval 0
param **.srv1.tcpApp[*].typename "\"TCPSinkApp\""
param **.udpApp[*].typename "\"UDPApp\""
param multi.testTimeout 0s
param multi.testing false

scalar multi.cli1.sctpApp[0] 	ums 	1400
scalar multi.cli1.sctp 	"Number of Fast Retransmissions 1:10.1.3.1" 	102
scalar multi.cli1.sctp 	"Number of Timer-Based Retransmissions 1:10.1.3.1" 	0
scalar multi.cli1.sctp 	"Number of Heartbeats Sent 1:10.1.3.1" 	0
scalar multi.cli1.sctp 	"Number of Heartbeats Received 1:10.1.3.1" 	2
scalar multi.cli1.sctp 	"Number of Heartbeat ACKs Sent 1:10.1.3.1" 	2
scalar multi.cli1.sctp 	"Number of Heartbeat ACKs Received 1:10.1.3.1" 	0
scalar multi.cli1.sctp 	"Number of Duplicates 1:10.1.3.1" 	0
scalar multi.cli1.sctp 	"Number of Bytes received from 1:10.1.3.1" 	0
scalar multi.cli1.sctp 	"Number of Fast Retransmissions 1:10.2.3.1" 	0
scalar multi.cli1.sctp 	"Number of Timer-Based Retransmissions 1:10.2.3.1" 	66
scalar multi.cli1.sctp 	"Number of Heartbeats Sent 1:10.2.3.1" 	2
scalar multi.cli1.sctp 	"Number of Heartbeats Received 1:10.2.3.1" 	4
scalar multi.cli1.sctp 	"Number of Heartbeat ACKs Sent 1:10.2.3.1" 	4
scalar multi.cli1.sctp 	"Number of Heartbeat ACKs Received 1:10.2.3.1" 	2
scalar multi.cli1.sctp 	"Number of Duplicates 1:10.2.3.1" 	0
scalar multi.cli1.sctp 	"Number of Bytes received from 1:10.2.3.1" 	0
scalar multi.cli1.sctp 	"Bytes received on stream 0 of assoc 1" 	0
scalar multi.cli1.sctp 	"Blocking TSNs Moved" 	0
scalar multi.srv1.sctp 	"Number of Fast Retransmissions 3:10.1.1.1" 	0
scalar multi.srv1.sctp 	"Number of Timer-Based Retransmissions 3:10.1.1.1" 	0
scalar multi.srv1.sctp 	"Number of Heartbeats Sent 3:10.1.1.1" 	3
scalar multi.srv1.sctp 	"Number of Heartbeats Received 3:10.1.1.1" 	0
scalar multi.srv1.sctp 	"Number of Heartbeat ACKs Sent 3:10.1.1.1" 	0
scalar multi.srv1.sctp 	"Number of Heartbeat ACKs Received 3:10.1.1.1" 	1
scalar multi.srv1.sctp 	"Number of Duplicates 3:10.1.1.1" 	0
scalar multi.srv1.sctp 	"Number of Bytes received from 3:10.1.1.1" 	1568000
scalar multi.srv1.sctp 	"Number of Fast Retransmissions 3:10.2.1.1" 	0
scalar multi.srv1.sctp 	"Number of Timer-Based Retransmissions 3:10.2.1.1" 	0
scalar multi.srv1.sctp 	"Number of Heartbeats Sent 3:10.2.1.1" 	4
scalar multi.srv1.sctp 	"Number of Heartbeats Received 3:10.2.1.1" 	2
scalar multi.srv1.sctp 	"Number of Heartbeat ACKs Sent 3:10.2.1.1" 	2
scalar multi.srv1.sctp 	"Number of Heartbeat ACKs Received 3:10.2.1.1" 	4
scalar multi.srv1.sctp 	"Number of Duplicates 3:10.2.1.1" 	39
scalar multi.srv1.sctp 	"Number of Bytes received from 3:10.2.1.1" 	88200
scalar multi.srv1.sctp 	"Bytes received on stream 0 of assoc 3" 	8400
scalar multi.srv1.sctp 	"Blocking TSNs Moved" 	0
scalar multi.cli1.networkLayer.arp 	failedARPResolution:count 	0
attr title  "ARP failed resolutions, count"
scalar multi.cli1.networkLayer.arp 	completedARPResolution:count 	0
attr title  "ARP completed resolutions, count"
scalar multi.cli1.networkLayer.arp 	initiatedARPResolution:count 	0
attr title  "ARP initiated resolutions, count"
scalar multi.cli1.networkLayer.arp 	sentReply:count 	0
attr title  "ARP replies sent, count"
scalar multi.cli1.networkLayer.arp 	sentReq:count 	0
attr title  "ARP request sent, count"
scalar multi.cli1.lo0.lo 	droppedPkBitError:count 	0
attr interpolationmode  none
attr source  dropPkBitError
attr title  "packets dropped/bit error, count"
scalar multi.cli1.lo0.lo 	droppedPkBitError:sum(packetBytes) 	0
attr interpolationmode  none
attr source  dropPkBitError
attr title  "packets dropped/bit error, sum(packetBytes)"
scalar multi.cli1.lo0.lo 	rcvdPkFromHL:count 	0
attr interpolationmode  none
attr source  packetReceivedFromUpper
attr title  "packets received from higher layer, count"
scalar multi.cli1.lo0.lo 	rcvdPkFromHL:sum(packetBytes) 	0
attr interpolationmode  none
attr source  packetReceivedFromUpper
attr title  "packets received from higher layer, sum(packetBytes)"
scalar multi.cli1.lo0.lo 	passedUpPk:count 	0
attr interpolationmode  none
attr source  packetSentToUpper
attr title  "packets passed to higher layer, count"
scalar multi.cli1.lo0.lo 	passedUpPk:sum(packetBytes) 	0
attr interpolationmode  none
attr source  packetSentToUpper
attr title  "packets passed to higher layer, sum(packetBytes)"
statistic multi.cli1.ppp[0].queue 	queueingTime:histogram
field count 426
field mean 0.050261569241026
field stddev 0.087465266490049
field sum 21.411428496677
field sqrsum 4.3274954538595
field min 0
field max 0.411552
attr interpolationmode  none
attr title  "queueing time, histogram"
bin	-INF	0
bin	-0.205776	0
bin	-0.1783392	0
bin	-0.1509024	0
bin	-0.1234656	0
bin	-0.0960288	0
bin	-0.068592	0
bin	-0.0411552	0
bin	-0.0137184	299
bin	0.0137184	1
bin	0.0411552	3
bin	0.068592	0
bin	0.0960288	0
bin	0.1234656	96
bin	0.1509024	0
bin	0.1783392	2
bin	0.205776	0
bin	0.2332128	0
bin	0.2606496	19
bin	0.2880864	0
bin	0.3155232	0
bin	0.34296	0
bin	0.3703968	0
bin	0.3978336	6
bin	0.4252704	0
bin	0.4527072	0
bin	0.480144	0
bin	0.5075808	0
bin	0.5350176	0
bin	0.5624544	0
bin	0.5898912	0
bin	0.617328	0
scalar multi.cli1.ppp[0].queue 	dropPk:count 	0
attr interpolationmode  none
attr source  dropPkByQueue
attr title  "dropped packets, count"
scalar multi.cli1.ppp[0].queue 	dropPk:sum(packetBytes) 	0
attr interpolationmode  none
attr source  dropPkByQueue
attr title  "dropped packets, sum(packetBytes)"
scalar multi.cli1.ppp[0].queue 	queueLength:max 	3
attr interpolationmode  sample-hold
attr title  "queue length, max"
scalar multi.cli1.ppp[0].queue 	queueLength:timeavg 	0.17655268019258
attr interpolationmode  sample-hold
attr title  "queue length, timeavg"
scalar multi.cli1.ppp[0].queue 	rcvdPk:count 	426
attr interpolationmode  none
attr title  "received packets, count"
scalar multi.cli1.ppp[0].queue 	rcvdPk:sum(packetBytes) 	1786640
attr interpolationmode  none
attr title  "received packets, sum(packetBytes)"
scalar multi.cli1.ppp[0].ppp 	txState:timeavg 	0.47221519768195
attr interpolationmode  sample-hold
attr title  "tx state, timeavg"
scalar multi.cli1.ppp[0].ppp 	droppedPkIfaceDown:count 	0
attr interpolationmode  none
attr source  dropPkIfaceDown
attr title  "packets dropped/interface down, count"
scalar multi.cli1.ppp[0].ppp 	droppedPkIfaceDown:sum(packetBytes) 	0
attr interpolationmode  none
attr source  dropPkIfaceDown
attr title  "packets dropped/interface down, sum(packetBytes)"
scalar multi.cli1.ppp[0].ppp 	droppedPkBitError:count 	0
attr interpolationmode  none
attr source  dropPkBitError
attr title  "packets dropped/bit error, count"
scalar multi.cli1.ppp[0].ppp 	droppedPkBitError:sum(packetBytes) 	0
attr interpolationmode  none
attr source  dropPkBitError
attr title  "packets dropped/bit error, sum(packetBytes)"
scalar multi.cli1.ppp[0].ppp 	rxPkOk:count 	339
attr interpolationmode  none
attr source  rxPkOk
attr title  "packets received OK, count"
scalar multi.cli1.ppp[0].ppp 	rxPkOk:sum(packetBytes) 	19653
attr interpolationmode  none
attr source  rxPkOk
attr title  "packets received OK, sum(packetBytes)"
scalar multi.cli1.ppp[0].ppp 	txPk:count 	426
attr interpolationmode  none
attr source  packetSentToLower
attr title  "packets transmitted, count"
scalar multi.cli1.ppp[0].ppp 	txPk:sum(packetBytes) 	1789622
attr interpolationmode  none
attr source  packetSentToLower
attr title  "packets transmitted, sum(packetBytes)"
scalar multi.cli1.ppp[0].ppp 	rcvdPkFromHL:count 	426
attr interpolationmode  none
attr source  packetReceivedFromUpper
attr title  "packets received from higher layer, count"
scalar multi.cli1.ppp[0].ppp 	rcvdPkFromHL:sum(packetBytes) 	1786640
attr interpolationmode  none
attr source  packetReceivedFromUpper
attr title  "packets received from higher layer, sum(packetBytes)"
scalar multi.cli1.ppp[0].ppp 	passedUpPk:count 	339
attr interpolationmode  none
attr source  packetSentToUpper
attr title  "packets passed to higher layer, count"
scalar multi.cli1.ppp[0].ppp 	passedUpPk:sum(packetBytes) 	17280
attr interpolationmode  none
attr source  packetSentToUpper
attr title  "packets passed to higher layer, sum(packetBytes)"
statistic multi.cli1.ppp[1].queue 	queueingTime:histogram
field count 27
field mean 0.12080030188637
field stddev 0.14330660847057
field sum 3.261608150932
field sqrsum 0.92795963408243
field min 0
field max 0.526474205105
attr interpolationmode  none
attr title  "queueing time, histogram"
bin	-INF	0
bin	-0.2632371025525	0
bin	-0.22813882221217	0
bin	-0.19304054187183	0
bin	-0.1579422615315	0
bin	-0.12284398119117	0
bin	-0.087745700850833	0
bin	-0.0526474205105	0
bin	-0.017549140170167	12
bin	0.017549140170167	1
bin	0.0526474205105	0
bin	0.087745700850833	0
bin	0.12284398119117	7
bin	0.1579422615315	0
bin	0.19304054187183	0
bin	0.22813882221217	1
bin	0.2632371025525	4
bin	0.29833538289283	0
bin	0.33343366323317	0
bin	0.3685319435735	1
bin	0.40363022391383	0
bin	0.43872850425417	0
bin	0.4738267845945	0
bin	0.50892506493483	1
bin	0.54402334527517	0
bin	0.5791216256155	0
bin	0.61421990595583	0
bin	0.64931818629617	0
bin	0.6844164666365	0
bin	0.71951474697683	0
bin	0.75461302731717	0
bin	0.7897113076575	0
scalar multi.cli1.ppp[1].queue 	dropPk:count 	0
attr interpolationmode  none
attr source  dropPkByQueue
attr title  "dropped packets, count"
scalar multi.cli1.ppp[1].queue 	dropPk:sum(packetBytes) 	0
attr interpolationmode  none
attr source  dropPkByQueue
attr title  "dropped packets, sum(packetBytes)"
scalar multi.cli1.ppp[1].queue 	queueLength:max 	4
attr interpolationmode  sample-hold
attr title  "queue length, max"
scalar multi.cli1.ppp[1].queue 	queueLength:timeavg 	0.026894313047557
attr interpolationmode  sample-hold
attr title  "queue length, timeavg"
scalar multi.cli1.ppp[1].queue 	rcvdPk:count 	27
attr interpolationmode  none
attr title  "received packets, count"
scalar multi.cli1.ppp[1].queue 	rcvdPk:sum(packetBytes) 	90168
attr interpolationmode  none
attr title  "received packets, sum(packetBytes)"
scalar multi.cli1.ppp[1].ppp 	txState:timeavg 	0.023841877567972
attr interpolationmode  sample-hold
attr title  "tx state, timeavg"
scalar multi.cli1.ppp[1].ppp 	droppedPkIfaceDown:count 	0
attr interpolationmode  none
attr source  dropPkIfaceDown
attr title  "packets dropped/interface down, count"
scalar multi.cli1.ppp[1].ppp 	droppedPkIfaceDown:sum(packetBytes) 	0
attr interpolationmode  none
attr source  dropPkIfaceDown
attr title  "packets dropped/interface down, sum(packetBytes)"
scalar multi.cli1.ppp[1].ppp 	droppedPkBitError:count 	0
attr interpolationmode  none
attr source  dropPkBitError
attr title  "packets dropped/bit error, count"
scalar multi.cli1.ppp[1].ppp 	droppedPkBitError:sum(packetBytes) 	0
attr interpolationmode  none
attr source  dropPkBitError
attr title  "packets dropped/bit error, sum(packetBytes)"
scalar multi.cli1.ppp[1].ppp 	rxPkOk:count 	19
attr interpolationmode  none
attr source  rxPkOk
attr title  "packets received OK, count"
scalar multi.cli1.ppp[1].ppp 	rxPkOk:sum(packetBytes) 	1165
attr interpolationmode  none
attr source  rxPkOk
attr title  "packets received OK, sum(packetBytes)"
scalar multi.cli1.ppp[1].ppp 	txPk:count 	27
attr interpolationmode  none
attr source  packetSentToLower
attr title  "packets transmitted, count"
scalar multi.cli1.ppp[1].ppp 	txPk:sum(packetBytes) 	90357
attr interpolationmode  none
attr source  packetSentToLower
attr title  "packets transmitted, sum(packetBytes)"
scalar multi.cli1.ppp[1].ppp 	rcvdPkFromHL:count 	27
attr interpolationmode  none
attr source  packetReceivedFromUpper
attr title  "packets received from higher layer, count"
scalar multi.cli1.ppp[1].ppp 	rcvdPkFromHL:sum(packetBytes) 	90168
attr interpolationmode  none
attr source  packetReceivedFromUpper
attr title  "packets received from higher layer, sum(packetBytes)"
scalar multi.cli1.ppp[1].ppp 	passedUpPk:count 	19
attr interpolationmode  none
attr source  packetSentToUpper
attr title  "packets passed to higher layer, count"
scalar multi.cli1.ppp[1].ppp 	passedUpPk:sum(packetBytes) 	1032
attr interpolationmode  none
attr source  packetSentToUpper
attr title  "packets passed to higher layer, sum(packetBytes)"
scalar multi.cli1.sctpApp[0] 	echoedPk:count 	0
attr interpolationmode  none
attr source  echoedPk
attr title  "packets echoed, count"
scalar multi.cli1.sctpApp[0] 	echoedPk:sum(packetBytes) 	0
attr interpolationmode  none
attr source  echoedPk
attr title  "packets echoed, sum(packetBytes)"
scalar multi.cli1.sctpApp[0] 	rcvdPk:count 	0
attr interpolationmode  none
attr source  rcvdPk
attr title  "packets received, count"
scalar multi.cli1.sctpApp[0] 	rcvdPk:sum(packetBytes) 	0
attr interpolationmode  none
attr source  rcvdPk
attr title  "packets received, sum(packetBytes)"
scalar multi.cli1.sctpApp[0] 	sentPk:count 	1300
attr interpolationmode  none
attr source  sentPk
attr title  "packets sent, count"
scalar multi.cli1.sctpApp[0] 	sentPk:sum(packetBytes) 	1820000
attr interpolationmode  none
attr source  sentPk
attr title  "packets sent, sum(packetBytes)"
scalar multi.cli1.sctp 	"Association Lifetime" 	118.947264
scalar multi.cli1.sctp 	"Acked Bytes" 	1576400
scalar multi.cli1.sctp 	"Throughput [bit/s]" 	106023.45590732
scalar multi.cli1.sctp 	"Transmitted Bytes" 	1841000
scalar multi.cli1.sctp 	"Fast RTX" 	102
scalar multi.cli1.sctp 	"Timer-Based RTX" 	66
scalar multi.cli1.sctp 	"Duplicate Acks" 	39
scalar multi.cli1.sctp 	"Packets Received" 	358
scalar multi.cli1.sctp 	"Packets Dropped" 	0
scalar multi.cli1.sctp 	"Sum of R Gap Ranges" 	3156
scalar multi.cli1.sctp 	"Sum of NR Gap Ranges" 	0
scalar multi.cli1.sctp 	"Overfull SACKs" 	0
scalar multi.cli1.sctp 	"Drops Because New TSN Greater Than Highest TSN" 	0
scalar multi.cli1.sctp 	"Drops Because No Room In Buffer" 	0
scalar multi.cli1.sctp 	"Chunks Reneged" 	0
scalar multi.cli1.sctp 	sackPeriod 	0.2
scalar multi.cli1.sctp 	"Number of AUTH chunks sent" 	0
scalar multi.cli1.sctp 	"Number of AUTH chunks accepted" 	0
scalar multi.cli1.sctp 	"Number of AUTH chunks rejected" 	0
scalar multi.cli1.sctp 	"Number of StreamReset requests sent" 	0
scalar multi.cli1.sctp 	"Number of StreamReset requests performed" 	0
scalar multi.cli1.sctp 	"Number of PacketDrop Reports" 	0
scalar multi.cli1.sctp 	RTXMethod 	0
scalar multi.srv1.networkLayer.arp 	failedARPResolution:count 	0
attr title  "ARP failed resolutions, count"
scalar multi.srv1.networkLayer.arp 	completedARPResolution:count 	0
attr title  "ARP completed resolutions, count"
scalar multi.srv1.networkLayer.arp 	initiatedARPResolution:count 	0
attr title  "ARP initiated resolutions, count"
scalar multi.srv1.networkLayer.arp 	sentReply:count 	0
attr title  "ARP replies sent, count"
scalar multi.srv1.networkLayer.arp 	sentReq:count 	0
attr title  "ARP request sent, count"
scalar multi.srv1.lo0.lo 	droppedPkBitError:count 	0
attr interpolationmode  none
attr source  dropPkBitError
attr title  "packets dropped/bit error, count"
scalar multi.srv1.lo0.lo 	droppedPkBitError:sum(packetBytes) 	0
attr interpolationmode  none
attr source  dropPkBitError
attr title  "packets dropped/bit error, sum(packetBytes)"
scalar multi.srv1.lo0.lo 	rcvdPkFromHL:count 	0
attr interpolationmode  none
attr source  packetReceivedFromUpper
attr title  "packets received from higher layer, count"
scalar multi.srv1.lo0.lo 	rcvdPkFromHL:sum(packetBytes) 	0
attr interpolationmode  none
attr source  packetReceivedFromUpper
attr title  "packets received from higher layer, sum(packetBytes)"
scalar multi.srv1.lo0.lo 	passedUpPk:count 	0
attr interpolationmode  none
attr source  packetSentToUpper
attr title  "packets passed to higher layer, count"
scalar multi.srv1.lo0.lo 	passedUpPk:sum(packetBytes) 	0
attr interpolationmode  none
attr source  packetSentToUpper
attr title  "packets passed to higher layer, sum(packetBytes)"
statistic multi.srv1.ppp[0].queue 	queueingTime:histogram
field count 378
field mean 4.994708994709e-06
field stddev 9.7108241576143e-05
field sum 0.001888
field sqrsum 3.564544e-06
field min 0
field max 0.001888
attr interpolationmode  none
attr title  "queueing time, histogram"
bin	-INF	0
bin	-0.000944	0
bin	-0.00081813333333333	0
bin	-0.00069226666666667	0
bin	-0.0005664	0
bin	-0.00044053333333333	0
bin	-0.00031466666666667	0
bin	-0.0001888	0
bin	-6.2933333333333e-05	377
bin	6.2933333333333e-05	0
bin	0.0001888	0
bin	0.00031466666666667	0
bin	0.00044053333333333	0
bin	0.0005664	0
bin	0.00069226666666667	0
bin	0.00081813333333333	0
bin	0.000944	0
bin	0.0010698666666667	0
bin	0.0011957333333333	0
bin	0.0013216	0
bin	0.0014474666666667	0
bin	0.0015733333333333	0
bin	0.0016992	0
bin	0.0018250666666667	1
bin	0.0019509333333333	0
bin	0.0020768	0
bin	0.0022026666666667	0
bin	0.0023285333333333	0
bin	0.0024544	0
bin	0.0025802666666667	0
bin	0.0027061333333333	0
bin	0.002832	0
scalar multi.srv1.ppp[0].queue 	dropPk:count 	0
attr interpolationmode  none
attr source  dropPkByQueue
attr title  "dropped packets, count"
scalar multi.srv1.ppp[0].queue 	dropPk:sum(packetBytes) 	0
attr interpolationmode  none
attr source  dropPkByQueue
attr title  "dropped packets, sum(packetBytes)"
scalar multi.srv1.ppp[0].queue 	queueLength:max 	1
attr interpolationmode  sample-hold
attr title  "queue length, max"
scalar multi.srv1.ppp[0].queue 	queueLength:timeavg 	1.556792253517e-05
attr interpolationmode  sample-hold
attr title  "queue length, timeavg"
scalar multi.srv1.ppp[0].queue 	rcvdPk:count 	378
attr interpolationmode  none
attr title  "received packets, count"
scalar multi.srv1.ppp[0].queue 	rcvdPk:sum(packetBytes) 	19292
attr interpolationmode  none
attr title  "received packets, sum(packetBytes)"
scalar multi.srv1.ppp[0].ppp 	txState:timeavg 	0.0057886285521449
attr interpolationmode  sample-hold
attr title  "tx state, timeavg"
scalar multi.srv1.ppp[0].ppp 	droppedPkIfaceDown:count 	0
attr interpolationmode  none
attr source  dropPkIfaceDown
attr title  "packets dropped/interface down, count"
scalar multi.srv1.ppp[0].ppp 	droppedPkIfaceDown:sum(packetBytes) 	0
attr interpolationmode  none
attr source  dropPkIfaceDown
attr title  "packets dropped/interface down, sum(packetBytes)"
scalar multi.srv1.ppp[0].ppp 	droppedPkBitError:count 	0
attr interpolationmode  none
attr source  dropPkBitError
attr title  "packets dropped/bit error, count"
scalar multi.srv1.ppp[0].ppp 	droppedPkBitError:sum(packetBytes) 	0
attr interpolationmode  none
attr source  dropPkBitError
attr title  "packets dropped/bit error, sum(packetBytes)"
scalar multi.srv1.ppp[0].ppp 	rxPkOk:count 	380
attr interpolationmode  none
attr source  rxPkOk
attr title  "packets received OK, count"
scalar multi.srv1.ppp[0].ppp 	rxPkOk:sum(packetBytes) 	1600896
attr interpolationmode  none
attr source  rxPkOk
attr title  "packets received OK, sum(packetBytes)"
scalar multi.srv1.ppp[0].ppp 	txPk:count 	378
attr interpolationmode  none
attr source  packetSentToLower
attr title  "packets transmitted, count"
scalar multi.srv1.ppp[0].ppp 	txPk:sum(packetBytes) 	21938
attr interpolationmode  none
attr source  packetSentToLower
attr title  "packets transmitted, sum(packetBytes)"
scalar multi.srv1.ppp[0].ppp 	rcvdPkFromHL:count 	378
attr interpolationmode  none
attr source  packetReceivedFromUpper
attr title  "packets received from higher layer, count"
scalar multi.srv1.ppp[0].ppp 	rcvdPkFromHL:sum(packetBytes) 	19292
attr interpolationmode  none
attr source  packetReceivedFromUpper
attr title  "packets received from higher layer, sum(packetBytes)"
scalar multi.srv1.ppp[0].ppp 	passedUpPk:count 	380
attr interpolationmode  none
attr source  packetSentToUpper
attr title  "packets passed to higher layer, count"
scalar multi.srv1.ppp[0].ppp 	passedUpPk:sum(packetBytes) 	1598236
attr interpolationmode  none
attr source  packetSentToUpper
attr title  "packets passed to higher layer, sum(packetBytes)"
statistic multi.srv1.ppp[1].queue 	queueingTime:histogram
field count 19
field mean 9.9368421052632e-05
field stddev 0.00043313690554762
field sum 0.001888
field sqrsum 3.564544e-06
field min 0
field max 0.001888
attr interpolationmode  none
attr title  "queueing time, histogram"
bin	-INF	0
bin	-0.000944	0
bin	-0.00081813333333333	0
bin	-0.00069226666666667	0
bin	-0.0005664	0
bin	-0.00044053333333333	0
bin	-0.00031466666666667	0
bin	-0.0001888	0
bin	-6.2933333333333e-05	18
bin	6.2933333333333e-05	0
bin	0.0001888	0
bin	0.00031466666666667	0
bin	0.00044053333333333	0
bin	0.0005664	0
bin	0.00069226666666667	0
bin	0.00081813333333333	0
bin	0.000944	0
bin	0.0010698666666667	0
bin	0.0011957333333333	0
bin	0.0013216	0
bin	0.0014474666666667	0
bin	0.0015733333333333	0
bin	0.0016992	0
bin	0.0018250666666667	1
bin	0.0019509333333333	0
bin	0.0020768	0
bin	0.0022026666666667	0
bin	0.0023285333333333	0
bin	0.0024544	0
bin	0.0025802666666667	0
bin	0.0027061333333333	0
bin	0.002832	0
scalar multi.srv1.ppp[1].queue 	dropPk:count 	0
attr interpolationmode  none
attr source  dropPkByQueue
attr title  "dropped packets, count"
scalar multi.srv1.ppp[1].queue 	dropPk:sum(packetBytes) 	0
attr interpolationmode  none
attr source  dropPkByQueue
attr title  "dropped packets, sum(packetBytes)"
scalar multi.srv1.ppp[1].queue 	queueLength:max 	1
attr interpolationmode  sample-hold
attr title  "queue length, max"
scalar multi.srv1.ppp[1].queue 	queueLength:timeavg 	1.556792253517e-05
attr interpolationmode  sample-hold
attr title  "queue length, timeavg"
scalar multi.srv1.ppp[1].queue 	rcvdPk:count 	19
attr interpolationmode  none
attr title  "received packets, count"
scalar multi.srv1.ppp[1].queue 	rcvdPk:sum(packetBytes) 	1032
attr interpolationmode  none
attr title  "received packets, sum(packetBytes)"
scalar multi.srv1.ppp[1].ppp 	txState:timeavg 	0.00030740050429615
attr interpolationmode  sample-hold
attr title  "tx state, timeavg"
scalar multi.srv1.ppp[1].ppp 	droppedPkIfaceDown:count 	0
attr interpolationmode  none
attr source  dropPkIfaceDown
attr title  "packets dropped/interface down, count"
scalar multi.srv1.ppp[1].ppp 	droppedPkIfaceDown:sum(packetBytes) 	0
attr interpolationmode  none
attr source  dropPkIfaceDown
attr title  "packets dropped/interface down, sum(packetBytes)"
scalar multi.srv1.ppp[1].ppp 	droppedPkBitError:count 	0
attr interpolationmode  none
attr source  dropPkBitError
attr title  "packets dropped/bit error, count"
scalar multi.srv1.ppp[1].ppp 	droppedPkBitError:sum(packetBytes) 	0
attr interpolationmode  none
attr source  dropPkBitError
attr title  "packets dropped/bit error, sum(packetBytes)"
scalar multi.srv1.ppp[1].ppp 	rxPkOk:count 	27
attr interpolationmode  none
attr source  rxPkOk
attr title  "packets received OK, count"
scalar multi.srv1.ppp[1].ppp 	rxPkOk:sum(packetBytes) 	90357
attr interpolationmode  none
attr source  rxPkOk
attr title  "packets received OK, sum(packetBytes)"
scalar multi.srv1.ppp[1].ppp 	txPk:count 	19
attr interpolationmode  none
attr source  packetSentToLower
attr title  "packets transmitted, count"
scalar multi.srv1.ppp[1].ppp 	txPk:sum(packetBytes) 	1165
attr interpolationmode  none
attr source  packetSentToLower
attr title  "packets transmitted, sum(packetBytes)"
scalar multi.srv1.ppp[1].ppp 	rcvdPkFromHL:count 	19
attr interpolationmode  none
attr source  packetReceivedFromUpper
attr title  "packets received from higher layer, count"
scalar multi.srv1.ppp[1].ppp 	rcvdPkFromHL:sum(packetBytes) 	1032
attr interpolationmode  none
attr source  packetReceivedFromUpper
attr title  "packets received from higher layer, sum(packetBytes)"
scalar multi.srv1.ppp[1].ppp 	passedUpPk:count 	27
attr interpolationmode  none
attr source  packetSentToUpper
attr title  "packets passed to higher layer, count"
scalar multi.srv1.ppp[1].ppp 	passedUpPk:sum(packetBytes) 	90168
attr interpolationmode  none
attr source  packetSentToUpper
attr title  "packets passed to higher layer, sum(packetBytes)"
scalar multi.srv1.sctpApp[0] 	"bytes rcvd" 	1576400
scalar multi.srv1.sctpApp[0] 	throughput 	105070.80221609
scalar multi.srv1.sctp 	"Bytes received on stream 0 of assoc 2" 	0
scalar multi.srv1.sctp 	"Bytes received on stream 1 of assoc 2" 	0
scalar multi.srv1.sctp 	"Bytes received on stream 2 of assoc 2" 	0
scalar multi.srv1.sctp 	"Bytes received on stream 3 of assoc 2" 	0
scalar multi.srv1.sctp 	"Bytes received on stream 4 of assoc 2" 	0
scalar multi.srv1.sctp 	"Bytes received on stream 5 of assoc 2" 	0
scalar multi.srv1.sctp 	"Bytes received on stream 6 of assoc 2" 	0
scalar multi.srv1.sctp 	"Bytes received on stream 7 of assoc 2" 	0
scalar multi.srv1.sctp 	"Bytes received on stream 8 of assoc 2" 	0
scalar multi.srv1.sctp 	"Bytes received on stream 9 of assoc 2" 	0
scalar multi.srv1.sctp 	"Bytes received on stream 10 of assoc 2" 	0
scalar multi.srv1.sctp 	"Bytes received on stream 11 of assoc 2" 	0
scalar multi.srv1.sctp 	"Bytes received on stream 12 of assoc 2" 	0
scalar multi.srv1.sctp 	"Bytes received on stream 13 of assoc 2" 	0
scalar multi.srv1.sctp 	"Bytes received on stream 14 of assoc 2" 	0
scalar multi.srv1.sctp 	"Bytes received on stream 15 of assoc 2" 	0
scalar multi.srv1.sctp 	"Bytes received on stream 16 of assoc 2" 	0
scalar multi.srv1.sctp 	"Blocking TSNs Moved" 	0
scalar multi.srv1.sctp 	"Association Lifetime" 	120.21747649668
scalar multi.srv1.sctp 	"Acked Bytes" 	0
scalar multi.srv1.sctp 	"Throughput [bit/s]" 	0
scalar multi.srv1.sctp 	"Transmitted Bytes" 	0
scalar multi.srv1.sctp 	"Fast RTX" 	0
scalar multi.srv1.sctp 	"Timer-Based RTX" 	0
scalar multi.srv1.sctp 	"Duplicate Acks" 	0
scalar multi.srv1.sctp 	"Packets Received" 	407
scalar multi.srv1.sctp 	"Packets Dropped" 	0
scalar multi.srv1.sctp 	"Sum of R Gap Ranges" 	0
scalar multi.srv1.sctp 	"Sum of NR Gap Ranges" 	0
scalar multi.srv1.sctp 	"Overfull SACKs" 	0
scalar multi.srv1.sctp 	"Drops Because New TSN Greater Than Highest TSN" 	0
scalar multi.srv1.sctp 	"Drops Because No Room In Buffer" 	0
scalar multi.srv1.sctp 	"Chunks Reneged" 	0
scalar multi.srv1.sctp 	sackPeriod 	0.2
scalar multi.srv1.sctp 	"Number of AUTH chunks sent" 	0
scalar multi.srv1.sctp 	"Number of AUTH chunks accepted" 	0
scalar multi.srv1.sctp 	"Number of AUTH chunks rejected" 	0
scalar multi.srv1.sctp 	"Number of StreamReset requests sent" 	0
scalar multi.srv1.sctp 	"Number of StreamReset requests performed" 	0
scalar multi.srv1.sctp 	"Number of PacketDrop Reports" 	0
scalar multi.srv1.sctp 	"Average End to End Delay" 	0.7433376
scalar multi.srv1.sctp 	RTXMethod 	0
scalar multi.router1.networkLayer.arp 	failedARPResolution:count 	0
attr title  "ARP failed resolutions, count"
scalar multi.router1.networkLayer.arp 	completedARPResolution:count 	0
attr title  "ARP completed resolutions, count"
scalar multi.router1.networkLayer.arp 	initiatedARPResolution:count 	0
attr title  "ARP initiated resolutions, count"
scalar multi.router1.networkLayer.arp 	sentReply:count 	0
attr title  "ARP replies sent, count"
scalar multi.router1.networkLayer.arp 	sentReq:count 	0
attr title  "ARP request sent, count"
scalar multi.router1.lo0.lo 	droppedPkBitError:count 	0
attr interpolationmode  none
attr source  dropPkBitError
attr title  "packets dropped/bit error, count"
scalar multi.router1.lo0.lo 	droppedPkBitError:sum(packetBytes) 	0
attr interpolationmode  none
attr source  dropPkBitError
attr title  "packets dropped/bit error, sum(packetBytes)"
scalar multi.router1.lo0.lo 	rcvdPkFromHL:count 	0
attr interpolationmode  none
attr source  packetReceivedFromUpper
attr title  "packets received from higher layer, count"
scalar multi.router1.lo0.lo 	rcvdPkFromHL:sum(packetBytes) 	0
attr interpolationmode  none
attr source  packetReceivedFromUpper
attr title  "packets received from higher layer, sum(packetBytes)"
scalar multi.router1.lo0.lo 	passedUpPk:count 	0
attr interpolationmode  none
attr source  packetSentToUpper
attr title  "packets passed to higher layer, count"
scalar multi.router1.lo0.lo 	passedUpPk:sum(packetBytes) 	0
attr interpolationmode  none
attr source  packetSentToUpper
attr title  "packets passed to higher layer, sum(packetBytes)"
statistic multi.router1.ppp[0].queue 	queueingTime:histogram
field count 339
field mean 0
field stddev 0
field sum 0
field sqrsum 0
field min 0
field max 0
attr interpolationmode  none
attr title  "queueing time, histogram"
bin	-INF	0
bin	-0.5	0
bin	-0.46666666666667	0
bin	-0.43333333333333	0
bin	-0.4	0
bin	-0.36666666666667	0
bin	-0.33333333333333	0
bin	-0.3	0
bin	-0.26666666666667	0
bin	-0.23333333333333	0
bin	-0.2	0
bin	-0.16666666666667	0
bin	-0.13333333333333	0
bin	-0.1	0
bin	-0.066666666666667	0
bin	-0.033333333333333	0
bin	0	339
bin	0.033333333333333	0
bin	0.066666666666667	0
bin	0.1	0
bin	0.13333333333333	0
bin	0.16666666666667	0
bin	0.2	0
bin	0.23333333333333	0
bin	0.26666666666667	0
bin	0.3	0
bin	0.33333333333333	0
bin	0.36666666666667	0
bin	0.4	0
bin	0.43333333333333	0
bin	0.46666666666667	0
bin	0.5	0
scalar multi.router1.ppp[0].queue 	dropPk:count 	0
attr interpolationmode  none
attr source  dropPkByQueue
attr title  "dropped packets, count"
scalar multi.router1.ppp[0].queue 	dropPk:sum(packetBytes) 	0
attr interpolationmode  none
attr source  dropPkByQueue
attr title  "dropped packets, sum(packetBytes)"
scalar multi.router1.ppp[0].queue 	queueLength:max 	0
attr interpolationmode  sample-hold
attr title  "queue length, max"
scalar multi.router1.ppp[0].queue 	queueLength:timeavg 	0
attr interpolationmode  sample-hold
attr title  "queue length, timeavg"
scalar multi.router1.ppp[0].queue 	rcvdPk:count 	339
attr interpolationmode  none
attr title  "received packets, count"
scalar multi.router1.ppp[0].queue 	rcvdPk:sum(packetBytes) 	17280
attr interpolationmode  none
attr title  "received packets, sum(packetBytes)"
scalar multi.router1.ppp[0].ppp 	txState:timeavg 	0.0051857013827744
attr interpolationmode  sample-hold
attr title  "tx state, timeavg"
scalar multi.router1.ppp[0].ppp 	droppedPkIfaceDown:count 	0
attr interpolationmode  none
attr source  dropPkIfaceDown
attr title  "packets dropped/interface down, count"
scalar multi.router1.ppp[0].ppp 	droppedPkIfaceDown:sum(packetBytes) 	0
attr interpolationmode  none
attr source  dropPkIfaceDown
attr title  "packets dropped/interface down, sum(packetBytes)"
scalar multi.router1.ppp[0].ppp 	droppedPkBitError:count 	1
attr interpolationmode  none
attr source  dropPkBitError
attr title  "packets dropped/bit error, count"
scalar multi.router1.ppp[0].ppp 	droppedPkBitError:sum(packetBytes) 	4287
attr interpolationmode  none
attr source  dropPkBitError
attr title  "packets dropped/bit error, sum(packetBytes)"
scalar multi.router1.ppp[0].ppp 	rxPkOk:count 	425
attr interpolationmode  none
attr source  rxPkOk
attr title  "packets received OK, count"
scalar multi.router1.ppp[0].ppp 	rxPkOk:sum(packetBytes) 	1785335
attr interpolationmode  none
attr source  rxPkOk
attr title  "packets received OK, sum(packetBytes)"
scalar multi.router1.ppp[0].ppp 	txPk:count 	339
attr interpolationmode  none
attr source  packetSentToLower
attr title  "packets transmitted, count"
scalar multi.router1.ppp[0].ppp 	txPk:sum(packetBytes) 	19653
attr interpolationmode  none
attr source  packetSentToLower
attr title  "packets transmitted, sum(packetBytes)"
scalar multi.router1.ppp[0].ppp 	rcvdPkFromHL:count 	339
attr interpolationmode  none
attr source  packetReceivedFromUpper
attr title  "packets received from higher layer, count"
scalar multi.router1.ppp[0].ppp 	rcvdPkFromHL:sum(packetBytes) 	17280
attr interpolationmode  none
attr source  packetReceivedFromUpper
attr title  "packets received from higher layer, sum(packetBytes)"
scalar multi.router1.ppp[0].ppp 	passedUpPk:count 	425
attr interpolationmode  none
attr source  packetSentToUpper
attr title  "packets passed to higher layer, count"
scalar multi.router1.ppp[0].ppp 	passedUpPk:sum(packetBytes) 	1782360
attr interpolationmode  none
attr source  packetSentToUpper
attr title  "packets passed to higher layer, sum(packetBytes)"
statistic multi.router1.ppp[1].queue 	queueingTime:histogram
field count 425
field mean 0.82220597164947
field stddev 0.49579013775835
field sum 349.43753795102
field sqrsum 391.53216335796
field min 0
field max 2.736128
attr interpolationmode  none
attr title  "queueing time, histogram"
bin	-INF	0
bin	-1.368064	0
bin	-1.1856554666667	0
bin	-1.0032469333333	0
bin	-0.8208384	0
bin	-0.63842986666667	0
bin	-0.45602133333333	0
bin	-0.2736128	0
bin	-0.091204266666667	26
bin	0.091204266666667	28
bin	0.2736128	32
bin	0.45602133333333	63
bin	0.63842986666667	107
bin	0.8208384	53
bin	1.0032469333333	53
bin	1.1856554666667	8
bin	1.368064	17
bin	1.5504725333333	21
bin	1.7328810666667	6
bin	1.9152896	3
bin	2.0976981333333	2
bin	2.2801066666667	1
bin	2.4625152	1
bin	2.6449237333333	4
bin	2.8273322666667	0
bin	3.0097408	0
bin	3.1921493333333	0
bin	3.3745578666667	0
bin	3.5569664	0
bin	3.7393749333333	0
bin	3.9217834666667	0
bin	4.104192	0
scalar multi.router1.ppp[1].queue 	dropPk:count 	0
attr interpolationmode  none
attr source  dropPkByQueue
attr title  "dropped packets, count"
scalar multi.router1.ppp[1].queue 	dropPk:sum(packetBytes) 	0
attr interpolationmode  none
attr source  dropPkByQueue
attr title  "dropped packets, sum(packetBytes)"
scalar multi.router1.ppp[1].queue 	queueLength:max 	10
attr interpolationmode  sample-hold
attr title  "queue length, max"
scalar multi.router1.ppp[1].queue 	queueLength:timeavg 	2.8813646831049
attr interpolationmode  sample-hold
attr title  "queue length, timeavg"
scalar multi.router1.ppp[1].queue 	rcvdPk:count 	425
attr interpolationmode  none
attr title  "received packets, count"
scalar multi.router1.ppp[1].queue 	rcvdPk:sum(packetBytes) 	1782360
attr interpolationmode  none
attr title  "received packets, sum(packetBytes)"
scalar multi.router1.ppp[1].ppp 	txState:timeavg 	0.94216803319753
attr interpolationmode  sample-hold
attr title  "tx state, timeavg"
scalar multi.router1.ppp[1].ppp 	droppedPkIfaceDown:count 	0
attr interpolationmode  none
attr source  dropPkIfaceDown
attr title  "packets dropped/interface down, count"
scalar multi.router1.ppp[1].ppp 	droppedPkIfaceDown:sum(packetBytes) 	0
attr interpolationmode  none
attr source  dropPkIfaceDown
attr title  "packets dropped/interface down, sum(packetBytes)"
scalar multi.router1.ppp[1].ppp 	droppedPkBitError:count 	38
attr interpolationmode  none
attr source  dropPkBitError
attr title  "packets dropped/bit error, count"
scalar multi.router1.ppp[1].ppp 	droppedPkBitError:sum(packetBytes) 	2230
attr interpolationmode  none
attr source  dropPkBitError
attr title  "packets dropped/bit error, sum(packetBytes)"
scalar multi.router1.ppp[1].ppp 	rxPkOk:count 	339
attr interpolationmode  none
attr source  rxPkOk
attr title  "packets received OK, count"
scalar multi.router1.ppp[1].ppp 	rxPkOk:sum(packetBytes) 	19653
attr interpolationmode  none
attr source  rxPkOk
attr title  "packets received OK, sum(packetBytes)"
scalar multi.router1.ppp[1].ppp 	txPk:count 	425
attr interpolationmode  none
attr source  packetSentToLower
attr title  "packets transmitted, count"
scalar multi.router1.ppp[1].ppp 	txPk:sum(packetBytes) 	1785335
attr interpolationmode  none
attr source  packetSentToLower
attr title  "packets transmitted, sum(packetBytes)"
scalar multi.router1.ppp[1].ppp 	rcvdPkFromHL:count 	425
attr interpolationmode  none
attr source  packetReceivedFromUpper
attr title  "packets received from higher layer, count"
scalar multi.router1.ppp[1].ppp 	rcvdPkFromHL:sum(packetBytes) 	1782360
attr interpolationmode  none
attr source  packetReceivedFromUpper
attr title  "packets received from higher layer, sum(packetBytes)"
scalar multi.router1.ppp[1].ppp 	passedUpPk:count 	339
attr interpolationmode  none
attr source  packetSentToUpper
attr title  "packets passed to higher layer, count"
scalar multi.router1.ppp[1].ppp 	passedUpPk:sum(packetBytes) 	17280
attr interpolationmode  none
attr source  packetSentToUpper
attr title  "packets passed to higher layer, sum(packetBytes)"
scalar multi.router2.networkLayer.arp 	failedARPResolution:count 	0
attr title  "ARP failed resolutions, count"
scalar multi.router2.networkLayer.arp 	completedARPResolution:count 	0
attr title  "ARP completed resolutions, count"
scalar multi.router2.networkLayer.arp 	initiatedARPResolution:count 	0
attr title  "ARP initiated resolutions, count"
scalar multi.router2.networkLayer.arp 	sentReply:count 	0
attr title  "ARP replies sent, count"
scalar multi.router2.networkLayer.arp 	sentReq:count 	0
attr title  "ARP request sent, count"
scalar multi.router2.lo0.lo 	droppedPkBitError:count 	0
attr interpolationmode  none
attr source  dropPkBitError
attr title  "packets dropped/bit error, count"
scalar multi.router2.lo0.lo 	droppedPkBitError:sum(packetBytes) 	0
attr interpolationmode  none
attr source  dropPkBitError
attr title  "packets dropped/bit error, sum(packetBytes)"
scalar multi.router2.lo0.lo 	rcvdPkFromHL:count 	0
attr interpolationmode  none
attr source  packetReceivedFromUpper
attr title  "packets received from higher layer, count"
scalar multi.router2.lo0.lo 	rcvdPkFromHL:sum(packetBytes) 	0
attr interpolationmode  none
attr source  packetReceivedFromUpper
attr title  "packets received from higher layer, sum(packetBytes)"
scalar multi.router2.lo0.lo 	passedUpPk:count 	0
attr interpolationmode  none
attr source  packetSentToUpper
attr title  "packets passed to higher layer, count"
scalar multi.router2.lo0.lo 	passedUpPk:sum(packetBytes) 	0
attr interpolationmode  none
attr source  packetSentToUpper
attr title  "packets passed to higher layer, sum(packetBytes)"
statistic multi.router2.ppp[0].queue 	queueingTime:histogram
field count 377
field mean 5.0079575596817e-06
field stddev 9.7236947055525e-05
field sum 0.001888
field sqrsum 3.564544e-06
field min 0
field max 0.001888
attr interpolationmode  none
attr title  "queueing time, histogram"
bin	-INF	0
bin	-0.000944	0
bin	-0.00081813333333333	0
bin	-0.00069226666666667	0
bin	-0.0005664	0
bin	-0.00044053333333333	0
bin	-0.00031466666666667	0
bin	-0.0001888	0
bin	-6.2933333333333e-05	376
bin	6.2933333333333e-05	0
bin	0.0001888	0
bin	0.00031466666666667	0
bin	0.00044053333333333	0
bin	0.0005664	0
bin	0.00069226666666667	0
bin	0.00081813333333333	0
bin	0.000944	0
bin	0.0010698666666667	0
bin	0.0011957333333333	0
bin	0.0013216	0
bin	0.0014474666666667	0
bin	0.0015733333333333	0
bin	0.0016992	0
bin	0.0018250666666667	1
bin	0.0019509333333333	0
bin	0.0020768	0
bin	0.0022026666666667	0
bin	0.0023285333333333	0
bin	0.0024544	0
bin	0.0025802666666667	0
bin	0.0027061333333333	0
bin	0.002832	0
scalar multi.router2.ppp[0].queue 	dropPk:count 	0
attr interpolationmode  none
attr source  dropPkByQueue
attr title  "dropped packets, count"
scalar multi.router2.ppp[0].queue 	dropPk:sum(packetBytes) 	0
attr interpolationmode  none
attr source  dropPkByQueue
attr title  "dropped packets, sum(packetBytes)"
scalar multi.router2.ppp[0].queue 	queueLength:max 	1
attr interpolationmode  sample-hold
attr title  "queue length, max"
scalar multi.router2.ppp[0].queue 	queueLength:timeavg 	1.556792253517e-05
attr interpolationmode  sample-hold
attr title  "queue length, timeavg"
scalar multi.router2.ppp[0].queue 	rcvdPk:count 	377
attr interpolationmode  none
attr title  "received packets, count"
scalar multi.router2.ppp[0].queue 	rcvdPk:sum(packetBytes) 	19244
attr interpolationmode  none
attr title  "received packets, sum(packetBytes)"
scalar multi.router2.ppp[0].ppp 	txState:timeavg 	0.01154823216397
attr interpolationmode  sample-hold
attr title  "tx state, timeavg"
scalar multi.router2.ppp[0].ppp 	droppedPkIfaceDown:count 	0
attr interpolationmode  none
attr source  dropPkIfaceDown
attr title  "packets dropped/interface down, count"
scalar multi.router2.ppp[0].ppp 	droppedPkIfaceDown:sum(packetBytes) 	0
attr interpolationmode  none
attr source  dropPkIfaceDown
attr title  "packets dropped/interface down, sum(packetBytes)"
scalar multi.router2.ppp[0].ppp 	droppedPkBitError:count 	45
attr interpolationmode  none
attr source  dropPkBitError
attr title  "packets dropped/bit error, count"
scalar multi.router2.ppp[0].ppp 	droppedPkBitError:sum(packetBytes) 	184439
attr interpolationmode  none
attr source  dropPkBitError
attr title  "packets dropped/bit error, sum(packetBytes)"
scalar multi.router2.ppp[0].ppp 	rxPkOk:count 	380
attr interpolationmode  none
attr source  rxPkOk
attr title  "packets received OK, count"
scalar multi.router2.ppp[0].ppp 	rxPkOk:sum(packetBytes) 	1600896
attr interpolationmode  none
attr source  rxPkOk
attr title  "packets received OK, sum(packetBytes)"
scalar multi.router2.ppp[0].ppp 	txPk:count 	377
attr interpolationmode  none
attr source  packetSentToLower
attr title  "packets transmitted, count"
scalar multi.router2.ppp[0].ppp 	txPk:sum(packetBytes) 	21883
attr interpolationmode  none
attr source  packetSentToLower
attr title  "packets transmitted, sum(packetBytes)"
scalar multi.router2.ppp[0].ppp 	rcvdPkFromHL:count 	377
attr interpolationmode  none
attr source  packetReceivedFromUpper
attr title  "packets received from higher layer, count"
scalar multi.router2.ppp[0].ppp 	rcvdPkFromHL:sum(packetBytes) 	19244
attr interpolationmode  none
attr source  packetReceivedFromUpper
attr title  "packets received from higher layer, sum(packetBytes)"
scalar multi.router2.ppp[0].ppp 	passedUpPk:count 	380
attr interpolationmode  none
attr source  packetSentToUpper
attr title  "packets passed to higher layer, count"
scalar multi.router2.ppp[0].ppp 	passedUpPk:sum(packetBytes) 	1598236
attr interpolationmode  none
attr source  packetSentToUpper
attr title  "packets passed to higher layer, sum(packetBytes)"
statistic multi.router2.ppp[1].queue 	queueingTime:histogram
field count 380
field mean 0.0014021894736842
field stddev 0.013613048376704
field sum 0.532832
field sqrsum 0.070981549056
field min 0
field max 0.134432
attr interpolationmode  none
attr title  "queueing time, histogram"
bin	-INF	0
bin	-0.5	0
bin	-0.46666666666667	0
bin	-0.43333333333333	0
bin	-0.4	0
bin	-0.36666666666667	0
bin	-0.33333333333333	0
bin	-0.3	0
bin	-0.26666666666667	0
bin	-0.23333333333333	0
bin	-0.2	0
bin	-0.16666666666667	0
bin	-0.13333333333333	0
bin	-0.1	0
bin	-0.066666666666667	0
bin	-0.033333333333333	0
bin	0	376
bin	0.033333333333333	0
bin	0.066666666666667	0
bin	0.1	2
bin	0.13333333333333	2
bin	0.16666666666667	0
bin	0.2	0
bin	0.23333333333333	0
bin	0.26666666666667	0
bin	0.3	0
bin	0.33333333333333	0
bin	0.36666666666667	0
bin	0.4	0
bin	0.43333333333333	0
bin	0.46666666666667	0
bin	0.5	0
scalar multi.router2.ppp[1].queue 	dropPk:count 	0
attr interpolationmode  none
attr source  dropPkByQueue
attr title  "dropped packets, count"
scalar multi.router2.ppp[1].queue 	dropPk:sum(packetBytes) 	0
attr interpolationmode  none
attr source  dropPkByQueue
attr title  "dropped packets, sum(packetBytes)"
scalar multi.router2.ppp[1].queue 	queueLength:max 	3
attr interpolationmode  sample-hold
attr title  "queue length, max"
scalar multi.router2.ppp[1].queue 	queueLength:timeavg 	0.0043935843751375
attr interpolationmode  sample-hold
attr title  "queue length, timeavg"
scalar multi.router2.ppp[1].queue 	rcvdPk:count 	380
attr interpolationmode  none
attr title  "received packets, count"
scalar multi.router2.ppp[1].queue 	rcvdPk:sum(packetBytes) 	1598236
attr interpolationmode  none
attr title  "received packets, sum(packetBytes)"
scalar multi.router2.ppp[1].ppp 	txState:timeavg 	0.42241737143835
attr interpolationmode  sample-hold
attr title  "tx state, timeavg"
scalar multi.router2.ppp[1].ppp 	droppedPkIfaceDown:count 	0
attr interpolationmode  none
attr source  dropPkIfaceDown
attr title  "packets dropped/interface down, count"
scalar multi.router2.ppp[1].ppp 	droppedPkIfaceDown:sum(packetBytes) 	0
attr interpolationmode  none
attr source  dropPkIfaceDown
attr title  "packets dropped/interface down, sum(packetBytes)"
scalar multi.router2.ppp[1].ppp 	droppedPkBitError:count 	1
attr interpolationmode  none
attr source  dropPkBitError
attr title  "packets dropped/bit error, count"
scalar multi.router2.ppp[1].ppp 	droppedPkBitError:sum(packetBytes) 	55
attr interpolationmode  none
attr source  dropPkBitError
attr title  "packets dropped/bit error, sum(packetBytes)"
scalar multi.router2.ppp[1].ppp 	rxPkOk:count 	377
attr interpolationmode  none
attr source  rxPkOk
attr title  "packets received OK, count"
scalar multi.router2.ppp[1].ppp 	rxPkOk:sum(packetBytes) 	21883
attr interpolationmode  none
attr source  rxPkOk
attr title  "packets received OK, sum(packetBytes)"
scalar multi.router2.ppp[1].ppp 	txPk:count 	380
attr interpolationmode  none
attr source  packetSentToLower
attr title  "packets transmitted, count"
scalar multi.router2.ppp[1].ppp 	txPk:sum(packetBytes) 	1600896
attr interpolationmode  none
attr source  packetSentToLower
attr title  "packets transmitted, sum(packetBytes)"
scalar multi.router2.ppp[1].ppp 	rcvdPkFromHL:count 	380
attr interpolationmode  none
attr source  packetReceivedFromUpper
attr title  "packets received from higher layer, count"
scalar multi.router2.ppp[1].ppp 	rcvdPkFromHL:sum(packetBytes) 	1598236
attr interpolationmode  none
attr source  packetReceivedFromUpper
attr title  "packets received from higher layer, sum(packetBytes)"
scalar multi.router2.ppp[1].ppp 	passedUpPk:count 	377
attr interpolationmode  none
attr source  packetSentToUpper
attr title  "packets passed to higher layer, count"
scalar multi.router2.ppp[1].ppp 	passedUpPk:sum(packetBytes) 	19244
attr interpolationmode  none
attr source  packetSentToUpper
attr title  "packets passed to higher layer, sum(packetBytes)"
scalar multi.router3.networkLayer.arp 	failedARPResolution:count 	0
attr title  "ARP failed resolutions, count"
scalar multi.router3.networkLayer.arp 	completedARPResolution:count 	0
attr title  "ARP completed resolutions, count"
scalar multi.router3.networkLayer.arp 	initiatedARPResolution:count 	0
attr title  "ARP initiated resolutions, count"
scalar multi.router3.networkLayer.arp 	sentReply:count 	0
attr title  "ARP replies sent, count"
scalar multi.router3.networkLayer.arp 	sentReq:count 	0
attr title  "ARP request sent, count"
scalar multi.router3.lo0.lo 	droppedPkBitError:count 	0
attr interpolationmode  none
attr source  dropPkBitError
attr title  "packets dropped/bit error, count"
scalar multi.router3.lo0.lo 	droppedPkBitError:sum(packetBytes) 	0
attr interpolationmode  none
attr source  dropPkBitError
attr title  "packets dropped/bit error, sum(packetBytes)"
scalar multi.router3.lo0.lo 	rcvdPkFromHL:count 	0
attr interpolationmode  none
attr source  packetReceivedFromUpper
attr title  "packets received from higher layer, count"
scalar multi.router3.lo0.lo 	rcvdPkFromHL:sum(packetBytes) 	0
attr interpolationmode  none
attr source  packetReceivedFromUpper
attr title  "packets received from higher layer, sum(packetBytes)"
scalar multi.router3.lo0.lo 	passedUpPk:count 	0
attr interpolationmode  none
attr source  packetSentToUpper
attr title  "packets passed to higher layer, count"
scalar multi.router3.lo0.lo 	passedUpPk:sum(packetBytes) 	0
attr interpolationmode  none
attr source  packetSentToUpper
attr title  "packets passed to higher layer, sum(packetBytes)"
statistic multi.router3.ppp[0].queue 	queueingTime:histogram
field count 19
field mean 0
field stddev 0
field sum 0
field sqrsum 0
field min 0
field max 0
attr interpolationmode  none
attr title  "queueing time, histogram"
bin	-INF	0
bin	-0.5	0
bin	-0.46666666666667	0
bin	-0.43333333333333	0
bin	-0.4	0
bin	-0.36666666666667	0
bin	-0.33333333333333	0
bin	-0.3	0
bin	-0.26666666666667	0
bin	-0.23333333333333	0
bin	-0.2	0
bin	-0.16666666666667	0
bin	-0.13333333333333	0
bin	-0.1	0
bin	-0.066666666666667	0
bin	-0.033333333333333	0
bin	0	19
bin	0.033333333333333	0
bin	0.066666666666667	0
bin	0.1	0
bin	0.13333333333333	0
bin	0.16666666666667	0
bin	0.2	0
bin	0.23333333333333	0
bin	0.26666666666667	0
bin	0.3	0
bin	0.33333333333333	0
bin	0.36666666666667	0
bin	0.4	0
bin	0.43333333333333	0
bin	0.46666666666667	0
bin	0.5	0
scalar multi.router3.ppp[0].queue 	dropPk:count 	0
attr interpolationmode  none
attr source  dropPkByQueue
attr title  "dropped packets, count"
scalar multi.router3.ppp[0].queue 	dropPk:sum(packetBytes) 	0
attr interpolationmode  none
attr source  dropPkByQueue
attr title  "dropped packets, sum(packetBytes)"
scalar multi.router3.ppp[0].queue 	queueLength:max 	0
attr interpolationmode  sample-hold
attr title  "queue length, max"
scalar multi.router3.ppp[0].queue 	queueLength:timeavg 	0
attr interpolationmode  sample-hold
attr title  "queue length, timeavg"
scalar multi.router3.ppp[0].queue 	rcvdPk:count 	19
attr interpolationmode  none
attr title  "received packets, count"
scalar multi.router3.ppp[0].queue 	rcvdPk:sum(packetBytes) 	1032
attr interpolationmode  none
attr title  "received packets, sum(packetBytes)"
scalar multi.router3.ppp[0].ppp 	txState:timeavg 	0.00030740050429615
attr interpolationmode  sample-hold
attr title  "tx state, timeavg"
scalar multi.router3.ppp[0].ppp 	droppedPkIfaceDown:count 	0
attr interpolationmode  none
attr source  dropPkIfaceDown
attr title  "packets dropped/interface down, count"
scalar multi.router3.ppp[0].ppp 	droppedPkIfaceDown:sum(packetBytes) 	0
attr interpolationmode  none
attr source  dropPkIfaceDown
attr title  "packets dropped/interface down, sum(packetBytes)"
scalar multi.router3.ppp[0].ppp 	droppedPkBitError:count 	0
attr interpolationmode  none
attr source  dropPkBitError
attr title  "packets dropped/bit error, count"
scalar multi.router3.ppp[0].ppp 	droppedPkBitError:sum(packetBytes) 	0
attr interpolationmode  none
attr source  dropPkBitError
attr title  "packets dropped/bit error, sum(packetBytes)"
scalar multi.router3.ppp[0].ppp 	rxPkOk:count 	27
attr interpolationmode  none
attr source  rxPkOk
attr title  "packets received OK, count"
scalar multi.router3.ppp[0].ppp 	rxPkOk:sum(packetBytes) 	90357
attr interpolationmode  none
attr source  rxPkOk
attr title  "packets received OK, sum(packetBytes)"
scalar multi.router3.ppp[0].ppp 	txPk:count 	19
attr interpolationmode  none
attr source  packetSentToLower
attr title  "packets transmitted, count"
scalar multi.router3.ppp[0].ppp 	txPk:sum(packetBytes) 	1165
attr interpolationmode  none
attr source  packetSentToLower
attr title  "packets transmitted, sum(packetBytes)"
scalar multi.router3.ppp[0].ppp 	rcvdPkFromHL:count 	19
attr interpolationmode  none
attr source  packetReceivedFromUpper
attr title  "packets received from higher layer, count"
scalar multi.router3.ppp[0].ppp 	rcvdPkFromHL:sum(packetBytes) 	1032
attr interpolationmode  none
attr source  packetReceivedFromUpper
attr title  "packets received from higher layer, sum(packetBytes)"
scalar multi.router3.ppp[0].ppp 	passedUpPk:count 	27
attr interpolationmode  none
attr source  packetSentToUpper
attr title  "packets passed to higher layer, count"
scalar multi.router3.ppp[0].ppp 	passedUpPk:sum(packetBytes) 	90168
attr interpolationmode  none
attr source  packetSentToUpper
attr title  "packets passed to higher layer, sum(packetBytes)"
statistic multi.router3.ppp[1].queue 	queueingTime:histogram
field count 27
field mean 0
field stddev 0
field sum 0
field sqrsum 0
field min 0
field max 0
attr interpolationmode  none
attr title  "queueing time, histogram"
bin	-INF	0
bin	-0.5	0
bin	-0.46666666666667	0
bin	-0.43333333333333	0
bin	-0.4	0
bin	-0.36666666666667	0
bin	-0.33333333333333	0
bin	-0.3	0
bin	-0.26666666666667	0
bin	-0.23333333333333	0
bin	-0.2	0
bin	-0.16666666666667	0
bin	-0.13333333333333	0
bin	-0.1	0
bin	-0.066666666666667	0
bin	-0.033333333333333	0
bin	0	27
bin	0.033333333333333	0
bin	0.066666666666667	0
bin	0.1	0
bin	0.13333333333333	0
bin	0.16666666666667	0
bin	0.2	0
bin	0.23333333333333	0
bin	0.26666666666667	0
bin	0.3	0
bin	0.33333333333333	0
bin	0.36666666666667	0
bin	0.4	0
bin	0.43333333333333	0
bin	0.46666666666667	0
bin	0.5	0
scalar multi.router3.ppp[1].queue 	dropPk:count 	0
attr interpolationmode  none
attr source  dropPkByQueue
attr title  "dropped packets, count"
scalar multi.router3.ppp[1].queue 	dropPk:sum(packetBytes) 	0
attr interpolationmode  none
attr source  dropPkByQueue
attr title  "dropped packets, sum(packetBytes)"
scalar multi.router3.ppp[1].queue 	queueLength:max 	0
attr interpolationmode  sample-hold
attr title  "queue length, max"
scalar multi.router3.ppp[1].queue 	queueLength:timeavg 	0
attr interpolationmode  sample-hold
attr title  "queue length, timeavg"
scalar multi.router3.ppp[1].queue 	rcvdPk:count 	27
attr interpolationmode  none
attr title  "received packets, count"
scalar multi.router3.ppp[1].queue 	rcvdPk:sum(packetBytes) 	90168
attr interpolationmode  none
attr title  "received packets, sum(packetBytes)"
scalar multi.router3.ppp[1].ppp 	txState:timeavg 	0.023841877567972
attr interpolationmode  sample-hold
attr title  "tx state, timeavg"
scalar multi.router3.ppp[1].ppp 	droppedPkIfaceDown:count 	0
attr interpolationmode  none
attr source  dropPkIfaceDown
attr title  "packets dropped/interface down, count"
scalar multi.router3.ppp[1].ppp 	droppedPkIfaceDown:sum(packetBytes) 	0
attr interpolationmode  none
attr source  dropPkIfaceDown
attr title  "packets dropped/interface down, sum(packetBytes)"
scalar multi.router3.ppp[1].ppp 	droppedPkBitError:count 	0
attr interpolationmode  none
attr source  dropPkBitError
attr title  "packets dropped/bit error, count"
scalar multi.router3.ppp[1].ppp 	droppedPkBitError:sum(packetBytes) 	0
attr interpolationmode  none
attr source  dropPkBitError
attr title  "packets dropped/bit error, sum(packetBytes)"
scalar multi.router3.ppp[1].ppp 	rxPkOk:count 	19
attr interpolationmode  none
attr source  rxPkOk
attr title  "packets received OK, count"
scalar multi.router3.ppp[1].ppp 	rxPkOk:sum(packetBytes) 	1165
attr interpolationmode  none
attr source  rxPkOk
attr title  "packets received OK, sum(packetBytes)"
scalar multi.router3.ppp[1].ppp 	txPk:count 	27
attr interpolationmode  none
attr source  packetSentToLower
attr title  "packets transmitted, count"
scalar multi.router3.ppp[1].ppp 	txPk:sum(packetBytes) 	90357
attr interpolationmode  none
attr source  packetSentToLower
attr title  "packets transmitted, sum(packetBytes)"
scalar multi.router3.ppp[1].ppp 	rcvdPkFromHL:count 	27
attr interpolationmode  none
attr source  packetReceivedFromUpper
attr title  "packets received from higher layer, count"
scalar multi.router3.ppp[1].ppp 	rcvdPkFromHL:sum(packetBytes) 	90168
attr interpolationmode  none
attr source  packetReceivedFromUpper
attr title  "packets received from higher layer, sum(packetBytes)"
scalar multi.router3.ppp[1].ppp 	passedUpPk:count 	19
attr interpolationmode  none
attr source  packetSentToUpper
attr title  "packets passed to higher layer, count"
scalar multi.router3.ppp[1].ppp 	passedUpPk:sum(packetBytes) 	1032
attr interpolationmode  none
attr source  packetSentToUpper
attr title  "packets passed to higher layer, sum(packetBytes)"
scalar multi.router4.networkLayer.arp 	failedARPResolution:count 	0
attr title  "ARP failed resolutions, count"
scalar multi.router4.networkLayer.arp 	completedARPResolution:count 	0
attr title  "ARP completed resolutions, count"
scalar multi.router4.networkLayer.arp 	initiatedARPResolution:count 	0
attr title  "ARP initiated resolutions, count"
scalar multi.router4.networkLayer.arp 	sentReply:count 	0
attr title  "ARP replies sent, count"
scalar multi.router4.networkLayer.arp 	sentReq:count 	0
attr title  "ARP request sent, count"
scalar multi.router4.lo0.lo 	droppedPkBitError:count 	0
attr interpolationmode  none
attr source  dropPkBitError
attr title  "packets dropped/bit error, count"
scalar multi.router4.lo0.lo 	droppedPkBitError:sum(packetBytes) 	0
attr interpolationmode  none
attr source  dropPkBitError
attr title  "packets dropped/bit error, sum(packetBytes)"
scalar multi.router4.lo0.lo 	rcvdPkFromHL:count 	0
attr interpolationmode  none
attr source  packetReceivedFromUpper
attr title  "packets received from higher layer, count"
scalar multi.router4.lo0.lo 	rcvdPkFromHL:sum(packetBytes) 	0
attr interpolationmode  none
attr source  packetReceivedFromUpper
attr title  "packets received from higher layer, sum(packetBytes)"
scalar multi.router4.lo0.lo 	passedUpPk:count 	0
attr interpolationmode  none
attr source  packetSentToUpper
attr title  "packets passed to higher layer, count"
scalar multi.router4.lo0.lo 	passedUpPk:sum(packetBytes) 	0
attr interpolationmode  none
attr source  packetSentToUpper
attr title  "packets passed to higher layer, sum(packetBytes)"
statistic multi.router4.ppp[0].queue 	queueingTime:histogram
field count 19
field mean 0
field stddev 0
field sum 0
field sqrsum 0
field min 0
field max 0
attr interpolationmode  none
attr title  "queueing time, histogram"
bin	-INF	0
bin	-0.5	0
bin	-0.46666666666667	0
bin	-0.43333333333333	0
bin	-0.4	0
bin	-0.36666666666667	0
bin	-0.33333333333333	0
bin	-0.3	0
bin	-0.26666666666667	0
bin	-0.23333333333333	0
bin	-0.2	0
bin	-0.16666666666667	0
bin	-0.13333333333333	0
bin	-0.1	0
bin	-0.066666666666667	0
bin	-0.033333333333333	0
bin	0	19
bin	0.033333333333333	0
bin	0.066666666666667	0
bin	0.1	0
bin	0.13333333333333	0
bin	0.16666666666667	0
bin	0.2	0
bin	0.23333333333333	0
bin	0.26666666666667	0
bin	0.3	0
bin	0.33333333333333	0
bin	0.36666666666667	0
bin	0.4	0
bin	0.43333333333333	0
bin	0.46666666666667	0
bin	0.5	0
scalar multi.router4.ppp[0].queue 	dropPk:count 	0
attr interpolationmode  none
attr source  dropPkByQueue
attr title  "dropped packets, count"
scalar multi.router4.ppp[0].queue 	dropPk:sum(packetBytes) 	0
attr interpolationmode  none
attr source  dropPkByQueue
attr title  "dropped packets, sum(packetBytes)"
scalar multi.router4.ppp[0].queue 	queueLength:max 	0
attr interpolationmode  sample-hold
attr title  "queue length, max"
scalar multi.router4.ppp[0].queue 	queueLength:timeavg 	0
attr interpolationmode  sample-hold
attr title  "queue length, timeavg"
scalar multi.router4.ppp[0].queue 	rcvdPk:count 	19
attr interpolationmode  none
attr title  "received packets, count"
scalar multi.router4.ppp[0].queue 	rcvdPk:sum(packetBytes) 	1032
attr interpolationmode  none
attr title  "received packets, sum(packetBytes)"
scalar multi.router4.ppp[0].ppp 	txState:timeavg 	0.00030740050429615
attr interpolationmode  sample-hold
attr title  "tx state, timeavg"
scalar multi.router4.ppp[0].ppp 	droppedPkIfaceDown:count 	0
attr interpolationmode  none
attr source  dropPkIfaceDown
attr title  "packets dropped/interface down, count"
scalar multi.router4.ppp[0].ppp 	droppedPkIfaceDown:sum(packetBytes) 	0
attr interpolationmode  none
attr source  dropPkIfaceDown
attr title  "packets dropped/interface down, sum(packetBytes)"
scalar multi.router4.ppp[0].ppp 	droppedPkBitError:count 	0
attr interpolationmode  none
attr source  dropPkBitError
attr title  "packets dropped/bit error, count"
scalar multi.router4.ppp[0].ppp 	droppedPkBitError:sum(packetBytes) 	0
attr interpolationmode  none
attr source  dropPkBitError
attr title  "packets dropped/bit error, sum(packetBytes)"
scalar multi.router4.ppp[0].ppp 	rxPkOk:count 	27
attr interpolationmode  none
attr source  rxPkOk
attr title  "packets received OK, count"
scalar multi.router4.ppp[0].ppp 	rxPkOk:sum(packetBytes) 	90357
attr interpolationmode  none
attr source  rxPkOk
attr title  "packets received OK, sum(packetBytes)"
scalar multi.router4.ppp[0].ppp 	txPk:count 	19
attr interpolationmode  none
attr source  packetSentToLower
attr title  "packets transmitted, count"
scalar multi.router4.ppp[0].ppp 	txPk:sum(packetBytes) 	1165
attr interpolationmode  none
attr source  packetSentToLower
attr title  "packets transmitted, sum(packetBytes)"
scalar multi.router4.ppp[0].ppp 	rcvdPkFromHL:count 	19
attr interpolationmode  none
attr source  packetReceivedFromUpper
attr title  "packets received from higher layer, count"
scalar multi.router4.ppp[0].ppp 	rcvdPkFromHL:sum(packetBytes) 	1032
attr interpolationmode  none
attr source  packetReceivedFromUpper
attr title  "packets received from higher layer, sum(packetBytes)"
scalar multi.router4.ppp[0].ppp 	passedUpPk:count 	27
attr interpolationmode  none
attr source  packetSentToUpper
attr title  "packets passed to higher layer, count"
scalar multi.router4.ppp[0].ppp 	passedUpPk:sum(packetBytes) 	90168
attr interpolationmode  none
attr source  packetSentToUpper
attr title  "packets passed to higher layer, sum(packetBytes)"
statistic multi.router4.ppp[1].queue 	queueingTime:histogram
field count 27
field mean 0
field stddev 0
field sum 0
field sqrsum 0
field min 0
field max 0
attr interpolationmode  none
attr title  "queueing time, histogram"
bin	-INF	0
bin	-0.5	0
bin	-0.46666666666667	0
bin	-0.43333333333333	0
bin	-0.4	0
bin	-0.36666666666667	0
bin	-0.33333333333333	0
bin	-0.3	0
bin	-0.26666666666667	0
bin	-0.23333333333333	0
bin	-0.2	0
bin	-0.16666666666667	0
bin	-0.13333333333333	0
bin	-0.1	0
bin	-0.066666666666667	0
bin	-0.033333333333333	0
bin	0	27
bin	0.033333333333333	0
bin	0.066666666666667	0
bin	0.1	0
bin	0.13333333333333	0
bin	0.16666666666667	0
bin	0.2	0
bin	0.23333333333333	0
bin	0.26666666666667	0
bin	0.3	0
bin	0.33333333333333	0
bin	0.36666666666667	0
bin	0.4	0
bin	0.43333333333333	0
bin	0.46666666666667	0
bin	0.5	0
scalar multi.router4.ppp[1].queue 	dropPk:count 	0
attr interpolationmode  none
attr source  dropPkByQueue
attr title  "dropped packets, count"
scalar multi.router4.ppp[1].queue 	dropPk:sum(packetBytes) 	0
attr interpolationmode  none
attr source  dropPkByQueue
attr title  "dropped packets, sum(packetBytes)"
scalar multi.router4.ppp[1].queue 	queueLength:max 	0
attr interpolationmode  sample-hold
attr title  "queue length, max"
scalar multi.router4.ppp[1].queue 	queueLength:timeavg 	0
attr interpolationmode  sample-hold
attr title  "queue length, timeavg"
scalar multi.router4.ppp[1].queue 	rcvdPk:count 	27
attr interpolationmode  none
attr title  "received packets, count"
scalar multi.router4.ppp[1].queue 	rcvdPk:sum(packetBytes) 	90168
attr interpolationmode  none
attr title  "received packets, sum(packetBytes)"
scalar multi.router4.ppp[1].ppp 	txState:timeavg 	0.023841877567972
attr interpolationmode  sample-hold
attr title  "tx state, timeavg"
scalar multi.router4.ppp[1].ppp 	droppedPkIfaceDown:count 	0
attr interpolationmode  none
attr source  dropPkIfaceDown
attr title  "packets dropped/interface down, count"
scalar multi.router4.ppp[1].ppp 	droppedPkIfaceDown:sum(packetBytes) 	0
attr interpolationmode  none
attr source  dropPkIfaceDown
attr title  "packets dropped/interface down, sum(packetBytes)"
scalar multi.router4.ppp[1].ppp 	droppedPkBitError:count 	0
attr interpolationmode  none
attr source  dropPkBitError
attr title  "packets dropped/bit error, count"
scalar multi.router4.ppp[1].ppp 	droppedPkBitError:sum(packetBytes) 	0
attr interpolationmode  none
attr source  dropPkBitError
attr title  "packets dropped/bit error, sum(packetBytes)"
scalar multi.router4.ppp[1].ppp 	rxPkOk:count 	19
attr interpolationmode  none
attr source  rxPkOk
attr title  "packets received OK, count"
scalar multi.router4.ppp[1].ppp 	rxPkOk:sum(packetBytes) 	1165
attr interpolationmode  none
attr source  rxPkOk
attr title  "packets received OK, sum(packetBytes)"
scalar multi.router4.ppp[1].ppp 	txPk:count 	27
attr interpolationmode  none
attr source  packetSentToLower
attr title  "packets transmitted, count"
scalar multi.router4.ppp[1].ppp 	txPk:sum(packetBytes) 	90357
attr interpolationmode  none
attr source  packetSentToLower
attr title  "packets transmitted, sum(packetBytes)"
scalar multi.router4.ppp[1].ppp 	rcvdPkFromHL:count 	27
attr interpolationmode  none
attr source  packetReceivedFromUpper
attr title  "packets received from higher layer, count"
scalar multi.router4.ppp[1].ppp 	rcvdPkFromHL:sum(packetBytes) 	90168
attr interpolationmode  none
attr source  packetReceivedFromUpper
attr title  "packets received from higher layer, sum(packetBytes)"
scalar multi.router4.ppp[1].ppp 	passedUpPk:count 	19
attr interpolationmode  none
attr source  packetSentToUpper
attr title  "packets passed to higher layer, count"
scalar multi.router4.ppp[1].ppp 	passedUpPk:sum(packetBytes) 	1032
attr interpolationmode  none
attr source  packetSentToUpper
attr title  "packets passed to higher layer, sum(packetBytes)"
